ELMER SOLVER (v 9.0) STARTED AT: 2024/06/30 17:39:18
ParCommInit:  Initialize #PEs:            1
MAIN: 
MAIN: =============================================================
MAIN: ElmerSolver finite element software, Welcome!
MAIN: This program is free software licensed under (L)GPL
MAIN: Copyright 1st April 1995 - , CSC - IT Center for Science Ltd.
MAIN: Webpage http://www.csc.fi/elmer, Email elmeradm@csc.fi
MAIN: Version: 9.0 (Rev: 00bb19d71, Compiled: 2024-06-19)
MAIN:  Running one task without MPI parallelization.
MAIN:  Running with just one thread per task.
MAIN:  MUMPS library linked in.
MAIN:  Lua interpreter linked in.
MAIN: =============================================================
MAIN: 
MAIN: 
MAIN: -------------------------------------
MAIN: Reading Model: case.sif
LoadInputFile: Scanning input file: case.sif
LoadInputFile: Scanning only size info
LoadInputFile: First time visiting
LoadInputFile: Reading base load of sif file
LoadInputFile: Loading input file: case.sif
LoadInputFile: Reading base load of sif file
CheckKeyword:  Unlisted keyword: [maskname] in section: [simulation]
CheckKeyword:  Unlisted keyword: [participantname] in section: [simulation]
CheckKeyword:  Unlisted keyword: [meshname] in section: [simulation]
CheckKeyword:  Unlisted keyword: [configpath] in section: [simulation]
CheckKeyword:  Unlisted keyword: [readdataname] in section: [solver 3]
CheckKeyword:  Unlisted keyword: [writedataname] in section: [solver 3]
CheckKeyword:  Unlisted keyword: [readdataname] in section: [solver 4]
CheckKeyword:  Unlisted keyword: [writedataname] in section: [solver 4]
CheckKeyword:  Unlisted keyword: [readdataname] in section: [solver 5]
CheckKeyword:  Unlisted keyword: [writedataname] in section: [solver 5]
CheckKeyword:  Unlisted keyword: [readdataname] in section: [solver 6]
CheckKeyword:  Unlisted keyword: [writedataname] in section: [solver 6]
CheckKeyword:  Unlisted keyword: [coupler interface] in section: [boundary condition 3]
LoadInputFile: Number of BCs: 3
LoadInputFile: Number of Body Forces: 0
LoadInputFile: Number of Initial Conditions: 1
LoadInputFile: Number of Materials: 1
LoadInputFile: Number of Equations: 1
LoadInputFile: Number of Solvers: 6
LoadInputFile: Number of Bodies: 1
ListTagKeywords: Setting weight for keywords!
ListTagKeywords: No parameters width suffix: normalize by area
ListTagKeywords: Setting weight for keywords!
ListTagKeywords: No parameters width suffix: normalize by volume
ElmerAsciiMesh: Base mesh name: ./Solid_Participant_Mesh
ReadTargetNames: Reading names info from file: ./Solid_Participant_Mesh/mesh.names
ReadTargetNames: Mapped 3 body names to indexes
ReadTargetNames: Mapped 1 bc names to indexes
LoadMesh: Elapsed REAL time:     0.0005 (s)
MAIN: -------------------------------------
AddVtuOutputSolverHack: Adding ResultOutputSolver to write VTU output in file: solid
OptimizeBandwidth: Initial bandwidth for heat equation: 90
OptimizeBandwidth: Optimized bandwidth for heat equation: 11
FluxSolver_init: Saving flux to: temperature Flux
OptimizeBandwidth: Initial bandwidth for flux compute: 90
OptimizeBandwidth: Optimized bandwidth for flux compute: 11
MAIN: Number of timesteps to be saved: 10
 Mesh dimension is:           2
CouplerSolver: Initializing Coupler Solver
 coupler interface Solid Solid-Mesh ../precice-config.xml
CouplerSolver: Number of nodes at interface:10
CouplerSolver: Created nodes at interface
CouplerSolver: Using existing variable : temperature
CouplerSolver: Using existing variable : temperature flux 2
CouplerSolver: Initializing Precice
---[precice] [0m This is preCICE version 3.1.2
---[precice] [0m Revision info: no-info [git failed to run]
---[precice] [0m Build type: Release (without debug log)
---[precice] [0m Configuring preCICE with configuration "../precice-config.xml"
---[precice] [0m I am participant "Solid"
CouplerSolver: Setting up mesh in Precice
---[precice] [0m Setting up primary communication to coupling partner/s
---[precice] [0m Primary ranks are connected
---[precice] [0m Setting up preliminary secondary communication to coupling partner/s
---[precice] [0m Receive global mesh Fluid-Mesh
---[precice] [0m Prepare partition for mesh Solid-Mesh
---[precice] [0m Gather mesh Solid-Mesh
---[precice] [0m Send global mesh Solid-Mesh
---[precice] [0m Setting up secondary communication to coupling partner/s
---[precice] [0m Secondary ranks are connected
---[precice] [0m Computing "nearest-neighbor" mapping from mesh "Fluid-Mesh" to mesh "Solid-Mesh" in "read" direction.
---[precice] [0m Mapping distance min:0 max:2.99999e-12 avg: 1.39998e-12 var: 1.03997e-24 cnt: 10
---[precice] [0m Mapping "Temperature" for t=0 from "Fluid-Mesh" to "Solid-Mesh"
---[precice] [0m iteration: 1, time-window: 1, time: 0 of 1, time-window-size: 0.1, max-time-step-size: 0.1, ongoing: yes, time-window-complete: no, 
 No initial data required
CouplerSolver: Ended
MAIN: 
MAIN: -------------------------------------
MAIN: Time: 1/10:   1.000E-01
MAIN: -------------------------------------
MAIN: 
 Mesh dimension is:           2
 No reading iteration checkpoint required
CouplerSolver: Readinging the data from Precice
CouplerSolver: Printing the data that was read
CouplerSolver: Printing temperature
CouplerSolver: Node:     1 Index:    10 Value:   300.0000 X=       0.00 Y=       0.00
CouplerSolver: Node:     3 Index:     1 Value:   300.0000 X=       1.00 Y=       0.00
CouplerSolver: Node:    21 Index:     2 Value:   300.0000 X=       0.89 Y=       0.00
CouplerSolver: Node:    22 Index:     3 Value:   300.0000 X=       0.78 Y=       0.00
CouplerSolver: Node:    23 Index:     4 Value:   300.0000 X=       0.67 Y=       0.00
CouplerSolver: Node:    24 Index:     5 Value:   300.0000 X=       0.56 Y=       0.00
CouplerSolver: Node:    25 Index:     6 Value:   300.0000 X=       0.44 Y=       0.00
CouplerSolver: Node:    26 Index:     7 Value:   300.0000 X=       0.33 Y=       0.00
CouplerSolver: Node:    27 Index:     8 Value:   300.0000 X=       0.22 Y=       0.00
CouplerSolver: Node:    28 Index:     9 Value:   300.0000 X=       0.11 Y=       0.00
CouplerSolver: Ended
SolveEquations: -------------------------------------
SolveEquations:  Coupled system iteration:            1
SolveEquations: -------------------------------------
HeatSolver: Solving the energy equation for temperature
HeatSolve: 
HeatSolve: 
HeatSolve: -------------------------------------
HeatSolve:  TEMPERATURE ITERATION           1
HeatSolve: -------------------------------------
HeatSolve: 
HeatSolve: Starting Assembly...
HeatSolve: Assembly:
HeatSolve: Assembly done
       3 0.1990E-11
ComputeChange: NS (ITER=1) (NRM,RELC): (  305.01624      2.0000000     ) :: heat equation
HeatSolve: iter:    1 Assembly: (s)    0.01    0.01
HeatSolve: iter:    1 Solve:    (s)    0.00    0.00
HeatSolve:  Result Norm   :    305.01624353556542
HeatSolve:  Relative Change :    2.0000000000000000
HeatSolve: 
HeatSolve: 
HeatSolve: -------------------------------------
HeatSolve:  TEMPERATURE ITERATION           2
HeatSolve: -------------------------------------
HeatSolve: 
HeatSolve: Starting Assembly...
HeatSolve: Assembly:
HeatSolve: Assembly done
       1 0.3447E-14
ComputeChange: NS (ITER=2) (NRM,RELC): (  305.01624     0.43511786E-11 ) :: heat equation
HeatSolve: iter:    2 Assembly: (s)    0.00    0.01
HeatSolve: iter:    2 Solve:    (s)    0.00    0.00
HeatSolve:  Result Norm   :    305.01624353689260
HeatSolve:  Relative Change :    4.3511785738863661E-012
ComputeChange: SS (ITER=1) (NRM,RELC): (  305.01624      2.0000000     ) :: heat equation
SolveEquations: -------------------------------------
SolveEquations:  Coupled system iteration:            2
SolveEquations: -------------------------------------
HeatSolver: Solving the energy equation for temperature
HeatSolve: 
HeatSolve: 
HeatSolve: -------------------------------------
HeatSolve:  TEMPERATURE ITERATION           1
HeatSolve: -------------------------------------
HeatSolve: 
HeatSolve: Starting Assembly...
HeatSolve: Assembly:
HeatSolve: Assembly done
       1 0.2831E-15
ComputeChange: NS (ITER=1) (NRM,RELC): (  305.01624     0.12113526E-13 ) :: heat equation
HeatSolve: iter:    1 Assembly: (s)    0.00    0.00
HeatSolve: iter:    1 Solve:    (s)    0.00    0.00
HeatSolve:  Result Norm   :    305.01624353689630
HeatSolve:  Relative Change :    1.2113526096539181E-014
ComputeChange: SS (ITER=2) (NRM,RELC): (  305.01624     0.12113526E-13 ) :: heat equation
FluxSolver: -------------------------------------
FluxSolver: Computing the flux and/or gradient
FluxSolver: -------------------------------------
FluxSolver:  Assembly Time:    6.8306922912597656E-004
       7 0.1600E-10
       7 0.9670E-11
ComputeChange: NS (ITER=2) (NRM,RELC): (  4000.0287      2.0000000     ) :: flux compute
FluxSolver:  Solution Time:    3.6096572875976562E-004
FluxSolver:  Result Norm:    4000.0286763864056
 Mesh dimension is:           2
CouplerSolver: Printing the data that is about to be written to Precice
CouplerSolver: Printing temperature flux 2
CouplerSolver: Node:     1 Index:    10 Value:  3999.1547 X=       0.00 Y=       0.00
CouplerSolver: Node:     3 Index:     1 Value:  3999.2159 X=       1.00 Y=       0.00
CouplerSolver: Node:    21 Index:     2 Value:  3999.1855 X=       0.89 Y=       0.00
CouplerSolver: Node:    22 Index:     3 Value:  3999.1787 X=       0.78 Y=       0.00
CouplerSolver: Node:    23 Index:     4 Value:  3999.1775 X=       0.67 Y=       0.00
CouplerSolver: Node:    24 Index:     5 Value:  3999.1772 X=       0.56 Y=       0.00
CouplerSolver: Node:    25 Index:     6 Value:  3999.1771 X=       0.44 Y=       0.00
CouplerSolver: Node:    26 Index:     7 Value:  3999.1769 X=       0.33 Y=       0.00
CouplerSolver: Node:    27 Index:     8 Value:  3999.1761 X=       0.22 Y=       0.00
CouplerSolver: Node:    28 Index:     9 Value:  3999.1762 X=       0.11 Y=       0.00
---[precice] [0m Time window completed
---[precice] [0m Mapping "Temperature" for t=0.1 from "Fluid-Mesh" to "Solid-Mesh"
---[precice] [0m iteration: 1, time-window: 2, time: 0.1 of 1, time-window-size: 0.1, max-time-step-size: 0.1, ongoing: yes, time-window-complete: yes, 
CouplerSolver: Ended
ResultOutputSolver: -------------------------------------
ResultOutputSolver: Saving with prefix: solid
ResultOutputSolver: Creating list for saving - if not present
CreateListForSaving: Field Variables for Saving
ResultOutputSolver: Saving in unstructured VTK XML (.vtu) format
VtuOutputSolver: Saving results in VTK XML format with prefix: solid
VtuOutputSolver: Saving number of partitions: 1
ResultOutputSolver: -------------------------------------
MAIN: 
MAIN: -------------------------------------
MAIN: Time: 2/10:   2.000E-01
MAIN: Estimated time left:  1.8 seconds
MAIN: -------------------------------------
MAIN: 
 Mesh dimension is:           2
 No reading iteration checkpoint required
CouplerSolver: Readinging the data from Precice
CouplerSolver: Printing the data that was read
CouplerSolver: Printing temperature
CouplerSolver: Node:     1 Index:    10 Value:   301.7048 X=       0.00 Y=       0.00
CouplerSolver: Node:     3 Index:     1 Value:   302.0293 X=       1.00 Y=       0.00
CouplerSolver: Node:    21 Index:     2 Value:   303.3841 X=       0.89 Y=       0.00
CouplerSolver: Node:    22 Index:     3 Value:   303.6801 X=       0.78 Y=       0.00
CouplerSolver: Node:    23 Index:     4 Value:   303.7425 X=       0.67 Y=       0.00
CouplerSolver: Node:    24 Index:     5 Value:   303.7514 X=       0.56 Y=       0.00
CouplerSolver: Node:    25 Index:     6 Value:   303.7405 X=       0.44 Y=       0.00
CouplerSolver: Node:    26 Index:     7 Value:   303.7007 X=       0.33 Y=       0.00
CouplerSolver: Node:    27 Index:     8 Value:   303.5757 X=       0.22 Y=       0.00
CouplerSolver: Node:    28 Index:     9 Value:   303.1637 X=       0.11 Y=       0.00
CouplerSolver: Ended
SolveEquations: -------------------------------------
SolveEquations:  Coupled system iteration:            1
SolveEquations: -------------------------------------
HeatSolver: Solving the energy equation for temperature
HeatSolve: 
HeatSolve: 
HeatSolve: -------------------------------------
HeatSolve:  TEMPERATURE ITERATION           1
HeatSolve: -------------------------------------
HeatSolve: 
HeatSolve: Starting Assembly...
HeatSolve: Assembly:
HeatSolve: Assembly done
       3 0.4139E-12
ComputeChange: NS (ITER=1) (NRM,RELC): (  306.65513     0.53587237E-02 ) :: heat equation
HeatSolve: iter:    1 Assembly: (s)    0.00    0.00
HeatSolve: iter:    1 Solve:    (s)    0.00    0.00
HeatSolve:  Result Norm   :    306.65513247992811
HeatSolve:  Relative Change :    5.3587236784045202E-003
HeatSolve: 
HeatSolve: 
HeatSolve: -------------------------------------
HeatSolve:  TEMPERATURE ITERATION           2
HeatSolve: -------------------------------------
HeatSolve: 
HeatSolve: Starting Assembly...
HeatSolve: Assembly:
HeatSolve: Assembly done
       1 0.6031E-15
ComputeChange: NS (ITER=2) (NRM,RELC): (  306.65513     0.11010737E-12 ) :: heat equation
HeatSolve: iter:    2 Assembly: (s)    0.00    0.00
HeatSolve: iter:    2 Solve:    (s)    0.00    0.00
HeatSolve:  Result Norm   :    306.65513247996188
HeatSolve:  Relative Change :    1.1010737218144609E-013
ComputeChange: SS (ITER=1) (NRM,RELC): (  306.65513     0.53587237E-02 ) :: heat equation
SolveEquations: -------------------------------------
SolveEquations:  Coupled system iteration:            2
SolveEquations: -------------------------------------
HeatSolver: Solving the energy equation for temperature
HeatSolve: 
HeatSolve: 
HeatSolve: -------------------------------------
HeatSolve:  TEMPERATURE ITERATION           1
HeatSolve: -------------------------------------
HeatSolve: 
HeatSolve: Starting Assembly...
HeatSolve: Assembly:
HeatSolve: Assembly done
       1 0.2872E-15
ComputeChange: NS (ITER=1) (NRM,RELC): (  306.65513      0.0000000     ) :: heat equation
HeatSolve: iter:    1 Assembly: (s)    0.00    0.00
HeatSolve: iter:    1 Solve:    (s)    0.00    0.00
HeatSolve:  Result Norm   :    306.65513247996188
HeatSolve:  Relative Change :    0.0000000000000000
ComputeChange: SS (ITER=2) (NRM,RELC): (  306.65513      0.0000000     ) :: heat equation
FluxSolver: -------------------------------------
FluxSolver: Computing the flux and/or gradient
FluxSolver: -------------------------------------
FluxSolver:  Assembly Time:    7.0810317993164062E-004
       8 0.5373E-11
       7 0.1138E-10
ComputeChange: NS (ITER=2) (NRM,RELC): (  2734.0179     0.37600298     ) :: flux compute
FluxSolver:  Solution Time:    3.4689903259277344E-004
FluxSolver:  Result Norm:    4845.1092139561779
 Mesh dimension is:           2
CouplerSolver: Printing the data that is about to be written to Precice
CouplerSolver: Printing temperature flux 2
CouplerSolver: Node:     1 Index:    10 Value:  3813.3337 X=       0.00 Y=       0.00
CouplerSolver: Node:     3 Index:     1 Value:  4917.8669 X=       1.00 Y=       0.00
CouplerSolver: Node:    21 Index:     2 Value:  2681.7465 X=       0.89 Y=       0.00
CouplerSolver: Node:    22 Index:     3 Value:  2323.4107 X=       0.78 Y=       0.00
CouplerSolver: Node:    23 Index:     4 Value:  2439.6148 X=       0.67 Y=       0.00
CouplerSolver: Node:    24 Index:     5 Value:  2472.3493 X=       0.56 Y=       0.00
CouplerSolver: Node:    25 Index:     6 Value:  2476.8893 X=       0.44 Y=       0.00
CouplerSolver: Node:    26 Index:     7 Value:  2460.6188 X=       0.33 Y=       0.00
CouplerSolver: Node:    27 Index:     8 Value:  2457.3070 X=       0.22 Y=       0.00
CouplerSolver: Node:    28 Index:     9 Value:  2195.6473 X=       0.11 Y=       0.00
---[precice] [0m Time window completed
---[precice] [0m Mapping "Temperature" for t=0.2 from "Fluid-Mesh" to "Solid-Mesh"
---[precice] [0m iteration: 1, time-window: 3, time: 0.2 of 1, time-window-size: 0.1, max-time-step-size: 0.1, ongoing: yes, time-window-complete: yes, 
CouplerSolver: Ended
ResultOutputSolver: -------------------------------------
ResultOutputSolver: Saving in unstructured VTK XML (.vtu) format
ResultOutputSolver: -------------------------------------
MAIN: 
MAIN: -------------------------------------
MAIN: Time: 3/10:   3.000E-01
MAIN: -------------------------------------
MAIN: 
 Mesh dimension is:           2
 No reading iteration checkpoint required
CouplerSolver: Readinging the data from Precice
CouplerSolver: Printing the data that was read
CouplerSolver: Printing temperature
CouplerSolver: Node:     1 Index:    10 Value:   302.2540 X=       0.00 Y=       0.00
CouplerSolver: Node:     3 Index:     1 Value:   303.3451 X=       1.00 Y=       0.00
CouplerSolver: Node:    21 Index:     2 Value:   304.6558 X=       0.89 Y=       0.00
CouplerSolver: Node:    22 Index:     3 Value:   304.8006 X=       0.78 Y=       0.00
CouplerSolver: Node:    23 Index:     4 Value:   304.8758 X=       0.67 Y=       0.00
CouplerSolver: Node:    24 Index:     5 Value:   304.8990 X=       0.56 Y=       0.00
CouplerSolver: Node:    25 Index:     6 Value:   304.8596 X=       0.44 Y=       0.00
CouplerSolver: Node:    26 Index:     7 Value:   304.7325 X=       0.33 Y=       0.00
CouplerSolver: Node:    27 Index:     8 Value:   304.4248 X=       0.22 Y=       0.00
CouplerSolver: Node:    28 Index:     9 Value:   303.7695 X=       0.11 Y=       0.00
CouplerSolver: Ended
SolveEquations: -------------------------------------
SolveEquations:  Coupled system iteration:            1
SolveEquations: -------------------------------------
HeatSolver: Solving the energy equation for temperature
HeatSolve: 
HeatSolve: 
HeatSolve: -------------------------------------
HeatSolve:  TEMPERATURE ITERATION           1
HeatSolve: -------------------------------------
HeatSolve: 
HeatSolve: Starting Assembly...
HeatSolve: Assembly:
HeatSolve: Assembly done
       3 0.1249E-12
ComputeChange: NS (ITER=1) (NRM,RELC): (  307.16074     0.16474144E-02 ) :: heat equation
HeatSolve: iter:    1 Assembly: (s)    0.00    0.00
HeatSolve: iter:    1 Solve:    (s)    0.00    0.00
HeatSolve:  Result Norm   :    307.16073703050381
HeatSolve:  Relative Change :    1.6474143978882946E-003
HeatSolve: 
HeatSolve: 
HeatSolve: -------------------------------------
HeatSolve:  TEMPERATURE ITERATION           2
HeatSolve: -------------------------------------
HeatSolve: 
HeatSolve: Starting Assembly...
HeatSolve: Assembly:
HeatSolve: Assembly done
       1 0.2999E-15
ComputeChange: NS (ITER=2) (NRM,RELC): (  307.16074     0.54778004E-13 ) :: heat equation
HeatSolve: iter:    2 Assembly: (s)    0.00    0.00
HeatSolve: iter:    2 Solve:    (s)    0.00    0.00
HeatSolve:  Result Norm   :    307.16073703052064
HeatSolve:  Relative Change :    5.4778003678014924E-014
ComputeChange: SS (ITER=1) (NRM,RELC): (  307.16074     0.16474144E-02 ) :: heat equation
SolveEquations: -------------------------------------
SolveEquations:  Coupled system iteration:            2
SolveEquations: -------------------------------------
HeatSolver: Solving the energy equation for temperature
HeatSolve: 
HeatSolve: 
HeatSolve: -------------------------------------
HeatSolve:  TEMPERATURE ITERATION           1
HeatSolve: -------------------------------------
HeatSolve: 
HeatSolve: Starting Assembly...
HeatSolve: Assembly:
HeatSolve: Assembly done
       1 0.2064E-15
ComputeChange: NS (ITER=1) (NRM,RELC): (  307.16074     0.18506082E-15 ) :: heat equation
HeatSolve: iter:    1 Assembly: (s)    0.00    0.00
HeatSolve: iter:    1 Solve:    (s)    0.00    0.00
HeatSolve:  Result Norm   :    307.16073703052069
HeatSolve:  Relative Change :    1.8506082323653184E-016
ComputeChange: SS (ITER=2) (NRM,RELC): (  307.16074     0.18506082E-15 ) :: heat equation
FluxSolver: -------------------------------------
FluxSolver: Computing the flux and/or gradient
FluxSolver: -------------------------------------
FluxSolver:  Assembly Time:    7.0405006408691406E-004
       8 0.3644E-11
       7 0.1316E-10
ComputeChange: NS (ITER=2) (NRM,RELC): (  2338.3716     0.69791727     ) :: flux compute
FluxSolver:  Solution Time:    3.4594535827636719E-004
FluxSolver:  Result Norm:    5379.8759213005187
 Mesh dimension is:           2
CouplerSolver: Printing the data that is about to be written to Precice
CouplerSolver: Printing temperature flux 2
CouplerSolver: Node:     1 Index:    10 Value:  3672.3474 X=       0.00 Y=       0.00
CouplerSolver: Node:     3 Index:     1 Value:  4348.0000 X=       1.00 Y=       0.00
CouplerSolver: Node:    21 Index:     2 Value:  2101.5223 X=       0.89 Y=       0.00
CouplerSolver: Node:    22 Index:     3 Value:  1909.7848 X=       0.78 Y=       0.00
CouplerSolver: Node:    23 Index:     4 Value:  2013.6583 X=       0.67 Y=       0.00
CouplerSolver: Node:    24 Index:     5 Value:  1997.6779 X=       0.56 Y=       0.00
CouplerSolver: Node:    25 Index:     6 Value:  1993.6587 X=       0.44 Y=       0.00
CouplerSolver: Node:    26 Index:     7 Value:  1988.5272 X=       0.33 Y=       0.00
CouplerSolver: Node:    27 Index:     8 Value:  2053.0095 X=       0.22 Y=       0.00
CouplerSolver: Node:    28 Index:     9 Value:  1997.6555 X=       0.11 Y=       0.00
---[precice] [0m Time window completed
---[precice] [0m Mapping "Temperature" for t=0.30000000000000004 from "Fluid-Mesh" to "Solid-Mesh"
---[precice] [0m iteration: 1, time-window: 4, time: 0.3 of 1, time-window-size: 0.1, max-time-step-size: 0.1, ongoing: yes, time-window-complete: yes, 
CouplerSolver: Ended
ResultOutputSolver: -------------------------------------
ResultOutputSolver: Saving in unstructured VTK XML (.vtu) format
ResultOutputSolver: -------------------------------------
MAIN: 
MAIN: -------------------------------------
MAIN: Time: 4/10:   4.000E-01
MAIN: -------------------------------------
MAIN: 
 Mesh dimension is:           2
 No reading iteration checkpoint required
CouplerSolver: Readinging the data from Precice
CouplerSolver: Printing the data that was read
CouplerSolver: Printing temperature
CouplerSolver: Node:     1 Index:    10 Value:   302.3444 X=       0.00 Y=       0.00
CouplerSolver: Node:     3 Index:     1 Value:   303.9994 X=       1.00 Y=       0.00
CouplerSolver: Node:    21 Index:     2 Value:   305.0696 X=       0.89 Y=       0.00
CouplerSolver: Node:    22 Index:     3 Value:   305.1382 X=       0.78 Y=       0.00
CouplerSolver: Node:    23 Index:     4 Value:   305.1841 X=       0.67 Y=       0.00
CouplerSolver: Node:    24 Index:     5 Value:   305.1629 X=       0.56 Y=       0.00
CouplerSolver: Node:    25 Index:     6 Value:   305.0566 X=       0.44 Y=       0.00
CouplerSolver: Node:    26 Index:     7 Value:   304.8359 X=       0.33 Y=       0.00
CouplerSolver: Node:    27 Index:     8 Value:   304.4350 X=       0.22 Y=       0.00
CouplerSolver: Node:    28 Index:     9 Value:   303.7612 X=       0.11 Y=       0.00
CouplerSolver: Ended
SolveEquations: -------------------------------------
SolveEquations:  Coupled system iteration:            1
SolveEquations: -------------------------------------
HeatSolver: Solving the energy equation for temperature
HeatSolve: 
HeatSolve: 
HeatSolve: -------------------------------------
HeatSolve:  TEMPERATURE ITERATION           1
HeatSolve: -------------------------------------
HeatSolve: 
HeatSolve: Starting Assembly...
HeatSolve: Assembly:
HeatSolve: Assembly done
       2 0.8412E-10
ComputeChange: NS (ITER=1) (NRM,RELC): (  307.27612     0.37557912E-03 ) :: heat equation
HeatSolve: iter:    1 Assembly: (s)    0.00    0.00
HeatSolve: iter:    1 Solve:    (s)    0.00    0.00
HeatSolve:  Result Norm   :    307.27612185733784
HeatSolve:  Relative Change :    3.7557911817333756E-004
HeatSolve: 
HeatSolve: 
HeatSolve: -------------------------------------
HeatSolve:  TEMPERATURE ITERATION           2
HeatSolve: -------------------------------------
HeatSolve: 
HeatSolve: Starting Assembly...
HeatSolve: Assembly:
HeatSolve: Assembly done
       1 0.1703E-12
ComputeChange: NS (ITER=2) (NRM,RELC): (  307.27612     0.20105579E-09 ) :: heat equation
HeatSolve: iter:    2 Assembly: (s)    0.00    0.00
HeatSolve: iter:    2 Solve:    (s)    0.00    0.00
HeatSolve:  Result Norm   :    307.27612191911749
HeatSolve:  Relative Change :    2.0105579350462579E-010
ComputeChange: SS (ITER=1) (NRM,RELC): (  307.27612     0.37557932E-03 ) :: heat equation
SolveEquations: -------------------------------------
SolveEquations:  Coupled system iteration:            2
SolveEquations: -------------------------------------
HeatSolver: Solving the energy equation for temperature
HeatSolve: 
HeatSolve: 
HeatSolve: -------------------------------------
HeatSolve:  TEMPERATURE ITERATION           1
HeatSolve: -------------------------------------
HeatSolve: 
HeatSolve: Starting Assembly...
HeatSolve: Assembly:
HeatSolve: Assembly done
       1 0.5753E-15
ComputeChange: NS (ITER=1) (NRM,RELC): (  307.27612     0.53517992E-12 ) :: heat equation
HeatSolve: iter:    1 Assembly: (s)    0.00    0.00
HeatSolve: iter:    1 Solve:    (s)    0.00    0.00
HeatSolve:  Result Norm   :    307.27612191928193
HeatSolve:  Relative Change :    5.3517992135933135E-013
ComputeChange: SS (ITER=2) (NRM,RELC): (  307.27612     0.53517992E-12 ) :: heat equation
FluxSolver: -------------------------------------
FluxSolver: Computing the flux and/or gradient
FluxSolver: -------------------------------------
FluxSolver:  Assembly Time:    7.0285797119140625E-004
       8 0.3525E-11
       7 0.1328E-10
ComputeChange: NS (ITER=2) (NRM,RELC): (  2241.7508     0.82347907     ) :: flux compute
FluxSolver:  Solution Time:    3.8313865661621094E-004
FluxSolver:  Result Norm:    5828.2511759674262
 Mesh dimension is:           2
CouplerSolver: Printing the data that is about to be written to Precice
CouplerSolver: Printing temperature flux 2
CouplerSolver: Node:     1 Index:    10 Value:  3617.0475 X=       0.00 Y=       0.00
CouplerSolver: Node:     3 Index:     1 Value:  3780.0860 X=       1.00 Y=       0.00
CouplerSolver: Node:    21 Index:     2 Value:  1917.4489 X=       0.89 Y=       0.00
CouplerSolver: Node:    22 Index:     3 Value:  1806.0908 X=       0.78 Y=       0.00
CouplerSolver: Node:    23 Index:     4 Value:  1888.3894 X=       0.67 Y=       0.00
CouplerSolver: Node:    24 Index:     5 Value:  1875.9256 X=       0.56 Y=       0.00
CouplerSolver: Node:    25 Index:     6 Value:  1892.8048 X=       0.44 Y=       0.00
CouplerSolver: Node:    26 Index:     7 Value:  1932.5889 X=       0.33 Y=       0.00
CouplerSolver: Node:    27 Index:     8 Value:  2067.7136 X=       0.22 Y=       0.00
CouplerSolver: Node:    28 Index:     9 Value:  2062.3321 X=       0.11 Y=       0.00
---[precice] [0m Time window completed
---[precice] [0m Mapping "Temperature" for t=0.4 from "Fluid-Mesh" to "Solid-Mesh"
---[precice] [0m iteration: 1, time-window: 5, time: 0.4 of 1, time-window-size: 0.1, max-time-step-size: 0.1, ongoing: yes, time-window-complete: yes, 
CouplerSolver: Ended
ResultOutputSolver: -------------------------------------
ResultOutputSolver: Saving in unstructured VTK XML (.vtu) format
ResultOutputSolver: -------------------------------------
MAIN: 
MAIN: -------------------------------------
MAIN: Time: 5/10:   5.000E-01
MAIN: -------------------------------------
MAIN: 
 Mesh dimension is:           2
 No reading iteration checkpoint required
CouplerSolver: Readinging the data from Precice
CouplerSolver: Printing the data that was read
CouplerSolver: Printing temperature
CouplerSolver: Node:     1 Index:    10 Value:   302.3611 X=       0.00 Y=       0.00
CouplerSolver: Node:     3 Index:     1 Value:   304.3665 X=       1.00 Y=       0.00
CouplerSolver: Node:    21 Index:     2 Value:   305.3056 X=       0.89 Y=       0.00
CouplerSolver: Node:    22 Index:     3 Value:   305.3585 X=       0.78 Y=       0.00
CouplerSolver: Node:    23 Index:     4 Value:   305.3627 X=       0.67 Y=       0.00
CouplerSolver: Node:    24 Index:     5 Value:   305.2849 X=       0.56 Y=       0.00
CouplerSolver: Node:    25 Index:     6 Value:   305.1167 X=       0.44 Y=       0.00
CouplerSolver: Node:    26 Index:     7 Value:   304.8400 X=       0.33 Y=       0.00
CouplerSolver: Node:    27 Index:     8 Value:   304.4117 X=       0.22 Y=       0.00
CouplerSolver: Node:    28 Index:     9 Value:   303.7480 X=       0.11 Y=       0.00
CouplerSolver: Ended
SolveEquations: -------------------------------------
SolveEquations:  Coupled system iteration:            1
SolveEquations: -------------------------------------
HeatSolver: Solving the energy equation for temperature
HeatSolve: 
HeatSolve: 
HeatSolve: -------------------------------------
HeatSolve:  TEMPERATURE ITERATION           1
HeatSolve: -------------------------------------
HeatSolve: 
HeatSolve: Starting Assembly...
HeatSolve: Assembly:
HeatSolve: Assembly done
       2 0.3568E-10
ComputeChange: NS (ITER=1) (NRM,RELC): (  307.33305     0.18523645E-03 ) :: heat equation
HeatSolve: iter:    1 Assembly: (s)    0.00    0.00
HeatSolve: iter:    1 Solve:    (s)    0.00    0.00
HeatSolve:  Result Norm   :    307.33304592978880
HeatSolve:  Relative Change :    1.8523645101512832E-004
HeatSolve: 
HeatSolve: 
HeatSolve: -------------------------------------
HeatSolve:  TEMPERATURE ITERATION           2
HeatSolve: -------------------------------------
HeatSolve: 
HeatSolve: Starting Assembly...
HeatSolve: Assembly:
HeatSolve: Assembly done
       1 0.1001E-12
ComputeChange: NS (ITER=2) (NRM,RELC): (  307.33305     0.11633411E-09 ) :: heat equation
HeatSolve: iter:    2 Assembly: (s)    0.00    0.00
HeatSolve: iter:    2 Solve:    (s)    0.00    0.00
HeatSolve:  Result Norm   :    307.33304596554211
HeatSolve:  Relative Change :    1.1633411122909463E-010
ComputeChange: SS (ITER=1) (NRM,RELC): (  307.33305     0.18523657E-03 ) :: heat equation
SolveEquations: -------------------------------------
SolveEquations:  Coupled system iteration:            2
SolveEquations: -------------------------------------
HeatSolver: Solving the energy equation for temperature
HeatSolve: 
HeatSolve: 
HeatSolve: -------------------------------------
HeatSolve:  TEMPERATURE ITERATION           1
HeatSolve: -------------------------------------
HeatSolve: 
HeatSolve: Starting Assembly...
HeatSolve: Assembly:
HeatSolve: Assembly done
       1 0.4464E-15
ComputeChange: NS (ITER=1) (NRM,RELC): (  307.33305     0.31350223E-12 ) :: heat equation
HeatSolve: iter:    1 Assembly: (s)    0.00    0.00
HeatSolve: iter:    1 Solve:    (s)    0.00    0.00
HeatSolve:  Result Norm   :    307.33304596563846
HeatSolve:  Relative Change :    3.1350222904391840E-013
ComputeChange: SS (ITER=2) (NRM,RELC): (  307.33305     0.31350223E-12 ) :: heat equation
FluxSolver: -------------------------------------
FluxSolver: Computing the flux and/or gradient
FluxSolver: -------------------------------------
FluxSolver:  Assembly Time:    6.7591667175292969E-004
       8 0.3557E-11
       7 0.1333E-10
ComputeChange: NS (ITER=2) (NRM,RELC): (  2195.9280     0.90534449     ) :: flux compute
FluxSolver:  Solution Time:    3.4689903259277344E-004
FluxSolver:  Result Norm:    6228.2109413342068
 Mesh dimension is:           2
CouplerSolver: Printing the data that is about to be written to Precice
CouplerSolver: Printing temperature flux 2
CouplerSolver: Node:     1 Index:    10 Value:  3601.0825 X=       0.00 Y=       0.00
CouplerSolver: Node:     3 Index:     1 Value:  3463.1050 X=       1.00 Y=       0.00
CouplerSolver: Node:    21 Index:     2 Value:  1825.6963 X=       0.89 Y=       0.00
CouplerSolver: Node:    22 Index:     3 Value:  1719.6067 X=       0.78 Y=       0.00
CouplerSolver: Node:    23 Index:     4 Value:  1801.8312 X=       0.67 Y=       0.00
CouplerSolver: Node:    24 Index:     5 Value:  1815.8418 X=       0.56 Y=       0.00
CouplerSolver: Node:    25 Index:     6 Value:  1863.4281 X=       0.44 Y=       0.00
CouplerSolver: Node:    26 Index:     7 Value:  1938.0465 X=       0.33 Y=       0.00
CouplerSolver: Node:    27 Index:     8 Value:  2094.7672 X=       0.22 Y=       0.00
CouplerSolver: Node:    28 Index:     9 Value:  2084.2285 X=       0.11 Y=       0.00
---[precice] [0m Time window completed
---[precice] [0m Mapping "Temperature" for t=0.5 from "Fluid-Mesh" to "Solid-Mesh"
---[precice] [0m iteration: 1, time-window: 6, time: 0.5 of 1, time-window-size: 0.1, max-time-step-size: 0.1, ongoing: yes, time-window-complete: yes, 
CouplerSolver: Ended
ResultOutputSolver: -------------------------------------
ResultOutputSolver: Saving in unstructured VTK XML (.vtu) format
ResultOutputSolver: -------------------------------------
MAIN: 
MAIN: -------------------------------------
MAIN: Time: 6/10:   6.000E-01
MAIN: -------------------------------------
MAIN: 
 Mesh dimension is:           2
 No reading iteration checkpoint required
CouplerSolver: Readinging the data from Precice
CouplerSolver: Printing the data that was read
CouplerSolver: Printing temperature
CouplerSolver: Node:     1 Index:    10 Value:   302.3896 X=       0.00 Y=       0.00
CouplerSolver: Node:     3 Index:     1 Value:   304.6383 X=       1.00 Y=       0.00
CouplerSolver: Node:    21 Index:     2 Value:   305.5002 X=       0.89 Y=       0.00
CouplerSolver: Node:    22 Index:     3 Value:   305.5312 X=       0.78 Y=       0.00
CouplerSolver: Node:    23 Index:     4 Value:   305.4953 X=       0.67 Y=       0.00
CouplerSolver: Node:    24 Index:     5 Value:   305.3745 X=       0.56 Y=       0.00
CouplerSolver: Node:    25 Index:     6 Value:   305.1663 X=       0.44 Y=       0.00
CouplerSolver: Node:    26 Index:     7 Value:   304.8609 X=       0.33 Y=       0.00
CouplerSolver: Node:    27 Index:     8 Value:   304.4213 X=       0.22 Y=       0.00
CouplerSolver: Node:    28 Index:     9 Value:   303.7629 X=       0.11 Y=       0.00
CouplerSolver: Ended
SolveEquations: -------------------------------------
SolveEquations:  Coupled system iteration:            1
SolveEquations: -------------------------------------
HeatSolver: Solving the energy equation for temperature
HeatSolve: 
HeatSolve: 
HeatSolve: -------------------------------------
HeatSolve:  TEMPERATURE ITERATION           1
HeatSolve: -------------------------------------
HeatSolve: 
HeatSolve: Starting Assembly...
HeatSolve: Assembly:
HeatSolve: Assembly done
       2 0.2252E-10
ComputeChange: NS (ITER=1) (NRM,RELC): (  307.38136     0.15718374E-03 ) :: heat equation
HeatSolve: iter:    1 Assembly: (s)    0.00    0.00
HeatSolve: iter:    1 Solve:    (s)    0.00    0.00
HeatSolve:  Result Norm   :    307.38135752023652
HeatSolve:  Relative Change :    1.5718374036494576E-004
HeatSolve: 
HeatSolve: 
HeatSolve: -------------------------------------
HeatSolve:  TEMPERATURE ITERATION           2
HeatSolve: -------------------------------------
HeatSolve: 
HeatSolve: Starting Assembly...
HeatSolve: Assembly:
HeatSolve: Assembly done
       1 0.5735E-13
ComputeChange: NS (ITER=2) (NRM,RELC): (  307.38136     0.66620681E-10 ) :: heat equation
HeatSolve: iter:    2 Assembly: (s)    0.00    0.00
HeatSolve: iter:    2 Solve:    (s)    0.00    0.00
HeatSolve:  Result Norm   :    307.38135754071448
HeatSolve:  Relative Change :    6.6620680889580329E-011
ComputeChange: SS (ITER=1) (NRM,RELC): (  307.38136     0.15718381E-03 ) :: heat equation
SolveEquations: -------------------------------------
SolveEquations:  Coupled system iteration:            2
SolveEquations: -------------------------------------
HeatSolver: Solving the energy equation for temperature
HeatSolve: 
HeatSolve: 
HeatSolve: -------------------------------------
HeatSolve:  TEMPERATURE ITERATION           1
HeatSolve: -------------------------------------
HeatSolve: 
HeatSolve: Starting Assembly...
HeatSolve: Assembly:
HeatSolve: Assembly done
       1 0.2808E-15
ComputeChange: NS (ITER=1) (NRM,RELC): (  307.38136     0.16698998E-12 ) :: heat equation
HeatSolve: iter:    1 Assembly: (s)    0.00    0.00
HeatSolve: iter:    1 Solve:    (s)    0.00    0.00
HeatSolve:  Result Norm   :    307.38135754076580
HeatSolve:  Relative Change :    1.6698998157201657E-013
ComputeChange: SS (ITER=2) (NRM,RELC): (  307.38136     0.16698998E-12 ) :: heat equation
FluxSolver: -------------------------------------
FluxSolver: Computing the flux and/or gradient
FluxSolver: -------------------------------------
FluxSolver:  Assembly Time:    6.7687034606933594E-004
       8 0.3580E-11
       7 0.1345E-10
ComputeChange: NS (ITER=2) (NRM,RELC): (  2158.3050     0.97058326     ) :: flux compute
FluxSolver:  Solution Time:    3.4809112548828125E-004
FluxSolver:  Result Norm:    6591.5773457517507
 Mesh dimension is:           2
CouplerSolver: Printing the data that is about to be written to Precice
CouplerSolver: Printing temperature flux 2
CouplerSolver: Node:     1 Index:    10 Value:  3585.3644 X=       0.00 Y=       0.00
CouplerSolver: Node:     3 Index:     1 Value:  3254.5983 X=       1.00 Y=       0.00
CouplerSolver: Node:    21 Index:     2 Value:  1743.3068 X=       0.89 Y=       0.00
CouplerSolver: Node:    22 Index:     3 Value:  1646.6021 X=       0.78 Y=       0.00
CouplerSolver: Node:    23 Index:     4 Value:  1740.0008 X=       0.67 Y=       0.00
CouplerSolver: Node:    24 Index:     5 Value:  1775.9154 X=       0.56 Y=       0.00
CouplerSolver: Node:    25 Index:     6 Value:  1844.5296 X=       0.44 Y=       0.00
CouplerSolver: Node:    26 Index:     7 Value:  1936.0927 X=       0.33 Y=       0.00
CouplerSolver: Node:    27 Index:     8 Value:  2099.9757 X=       0.22 Y=       0.00
CouplerSolver: Node:    28 Index:     9 Value:  2085.7004 X=       0.11 Y=       0.00
---[precice] [0m Time window completed
---[precice] [0m Mapping "Temperature" for t=0.6000000000000001 from "Fluid-Mesh" to "Solid-Mesh"
---[precice] [0m iteration: 1, time-window: 7, time: 0.6 of 1, time-window-size: 0.1, max-time-step-size: 0.1, ongoing: yes, time-window-complete: yes, 
CouplerSolver: Ended
ResultOutputSolver: -------------------------------------
ResultOutputSolver: Saving in unstructured VTK XML (.vtu) format
ResultOutputSolver: -------------------------------------
MAIN: 
MAIN: -------------------------------------
MAIN: Time: 7/10:   7.000E-01
MAIN: -------------------------------------
MAIN: 
 Mesh dimension is:           2
 No reading iteration checkpoint required
CouplerSolver: Readinging the data from Precice
CouplerSolver: Printing the data that was read
CouplerSolver: Printing temperature
CouplerSolver: Node:     1 Index:    10 Value:   302.4330 X=       0.00 Y=       0.00
CouplerSolver: Node:     3 Index:     1 Value:   304.8559 X=       1.00 Y=       0.00
CouplerSolver: Node:    21 Index:     2 Value:   305.6522 X=       0.89 Y=       0.00
CouplerSolver: Node:    22 Index:     3 Value:   305.6554 X=       0.78 Y=       0.00
CouplerSolver: Node:    23 Index:     4 Value:   305.5866 X=       0.67 Y=       0.00
CouplerSolver: Node:    24 Index:     5 Value:   305.4347 X=       0.56 Y=       0.00
CouplerSolver: Node:    25 Index:     6 Value:   305.2004 X=       0.44 Y=       0.00
CouplerSolver: Node:    26 Index:     7 Value:   304.8783 X=       0.33 Y=       0.00
CouplerSolver: Node:    27 Index:     8 Value:   304.4369 X=       0.22 Y=       0.00
CouplerSolver: Node:    28 Index:     9 Value:   303.7923 X=       0.11 Y=       0.00
CouplerSolver: Ended
SolveEquations: -------------------------------------
SolveEquations:  Coupled system iteration:            1
SolveEquations: -------------------------------------
HeatSolver: Solving the energy equation for temperature
HeatSolve: 
HeatSolve: 
HeatSolve: -------------------------------------
HeatSolve:  TEMPERATURE ITERATION           1
HeatSolve: -------------------------------------
HeatSolve: 
HeatSolve: Starting Assembly...
HeatSolve: Assembly:
HeatSolve: Assembly done
       2 0.2257E-10
ComputeChange: NS (ITER=1) (NRM,RELC): (  307.41978     0.12498671E-03 ) :: heat equation
HeatSolve: iter:    1 Assembly: (s)    0.00    0.00
HeatSolve: iter:    1 Solve:    (s)    0.00    0.00
HeatSolve:  Result Norm   :    307.41977852706259
HeatSolve:  Relative Change :    1.2498671210180135E-004
HeatSolve: 
HeatSolve: 
HeatSolve: -------------------------------------
HeatSolve:  TEMPERATURE ITERATION           2
HeatSolve: -------------------------------------
HeatSolve: 
HeatSolve: Starting Assembly...
HeatSolve: Assembly:
HeatSolve: Assembly done
       1 0.4791E-13
ComputeChange: NS (ITER=2) (NRM,RELC): (  307.41978     0.55341662E-10 ) :: heat equation
HeatSolve: iter:    2 Assembly: (s)    0.00    0.00
HeatSolve: iter:    2 Solve:    (s)    0.00    0.00
HeatSolve:  Result Norm   :    307.41977854407571
HeatSolve:  Relative Change :    5.5341662333003278E-011
ComputeChange: SS (ITER=1) (NRM,RELC): (  307.41978     0.12498677E-03 ) :: heat equation
SolveEquations: -------------------------------------
SolveEquations:  Coupled system iteration:            2
SolveEquations: -------------------------------------
HeatSolver: Solving the energy equation for temperature
HeatSolve: 
HeatSolve: 
HeatSolve: -------------------------------------
HeatSolve:  TEMPERATURE ITERATION           1
HeatSolve: -------------------------------------
HeatSolve: 
HeatSolve: Starting Assembly...
HeatSolve: Assembly:
HeatSolve: Assembly done
       1 0.3209E-15
ComputeChange: NS (ITER=1) (NRM,RELC): (  307.41978     0.14052771E-12 ) :: heat equation
HeatSolve: iter:    1 Assembly: (s)    0.00    0.00
HeatSolve: iter:    1 Solve:    (s)    0.00    0.00
HeatSolve:  Result Norm   :    307.41977854411891
HeatSolve:  Relative Change :    1.4052771275423061E-013
ComputeChange: SS (ITER=2) (NRM,RELC): (  307.41978     0.14052771E-12 ) :: heat equation
FluxSolver: -------------------------------------
FluxSolver: Computing the flux and/or gradient
FluxSolver: -------------------------------------
FluxSolver:  Assembly Time:    6.6900253295898438E-004
       8 0.3615E-11
       7 0.1354E-10
ComputeChange: NS (ITER=2) (NRM,RELC): (  2127.9674      1.0238172     ) :: flux compute
FluxSolver:  Solution Time:    3.6001205444335938E-004
FluxSolver:  Result Norm:    6926.5530535804492
 Mesh dimension is:           2
CouplerSolver: Printing the data that is about to be written to Precice
CouplerSolver: Printing temperature flux 2
CouplerSolver: Node:     1 Index:    10 Value:  3561.1594 X=       0.00 Y=       0.00
CouplerSolver: Node:     3 Index:     1 Value:  3083.4874 X=       1.00 Y=       0.00
CouplerSolver: Node:    21 Index:     2 Value:  1674.2216 X=       0.89 Y=       0.00
CouplerSolver: Node:    22 Index:     3 Value:  1595.4961 X=       0.78 Y=       0.00
CouplerSolver: Node:    23 Index:     4 Value:  1699.6953 X=       0.67 Y=       0.00
CouplerSolver: Node:    24 Index:     5 Value:  1750.9243 X=       0.56 Y=       0.00
CouplerSolver: Node:    25 Index:     6 Value:  1833.2527 X=       0.44 Y=       0.00
CouplerSolver: Node:    26 Index:     7 Value:  1935.4471 X=       0.33 Y=       0.00
CouplerSolver: Node:    27 Index:     8 Value:  2102.9171 X=       0.22 Y=       0.00
CouplerSolver: Node:    28 Index:     9 Value:  2078.4671 X=       0.11 Y=       0.00
---[precice] [0m Time window completed
---[precice] [0m Mapping "Temperature" for t=0.7000000000000001 from "Fluid-Mesh" to "Solid-Mesh"
---[precice] [0m iteration: 1, time-window: 8, time: 0.7 of 1, time-window-size: 0.1, max-time-step-size: 0.1, ongoing: yes, time-window-complete: yes, 
CouplerSolver: Ended
ResultOutputSolver: -------------------------------------
ResultOutputSolver: Saving in unstructured VTK XML (.vtu) format
ResultOutputSolver: -------------------------------------
MAIN: 
MAIN: -------------------------------------
MAIN: Time: 8/10:   8.000E-01
MAIN: -------------------------------------
MAIN: 
 Mesh dimension is:           2
 No reading iteration checkpoint required
CouplerSolver: Readinging the data from Precice
CouplerSolver: Printing the data that was read
CouplerSolver: Printing temperature
CouplerSolver: Node:     1 Index:    10 Value:   302.4833 X=       0.00 Y=       0.00
CouplerSolver: Node:     3 Index:     1 Value:   305.0266 X=       1.00 Y=       0.00
CouplerSolver: Node:    21 Index:     2 Value:   305.7637 X=       0.89 Y=       0.00
CouplerSolver: Node:    22 Index:     3 Value:   305.7421 X=       0.78 Y=       0.00
CouplerSolver: Node:    23 Index:     4 Value:   305.6465 X=       0.67 Y=       0.00
CouplerSolver: Node:    24 Index:     5 Value:   305.4703 X=       0.56 Y=       0.00
CouplerSolver: Node:    25 Index:     6 Value:   305.2181 X=       0.44 Y=       0.00
CouplerSolver: Node:    26 Index:     7 Value:   304.8905 X=       0.33 Y=       0.00
CouplerSolver: Node:    27 Index:     8 Value:   304.4597 X=       0.22 Y=       0.00
CouplerSolver: Node:    28 Index:     9 Value:   303.8342 X=       0.11 Y=       0.00
CouplerSolver: Ended
SolveEquations: -------------------------------------
SolveEquations:  Coupled system iteration:            1
SolveEquations: -------------------------------------
HeatSolver: Solving the energy equation for temperature
HeatSolve: 
HeatSolve: 
HeatSolve: -------------------------------------
HeatSolve:  TEMPERATURE ITERATION           1
HeatSolve: -------------------------------------
HeatSolve: 
HeatSolve: Starting Assembly...
HeatSolve: Assembly:
HeatSolve: Assembly done
       2 0.1982E-10
ComputeChange: NS (ITER=1) (NRM,RELC): (  307.44950     0.96681040E-04 ) :: heat equation
HeatSolve: iter:    1 Assembly: (s)    0.00    0.00
HeatSolve: iter:    1 Solve:    (s)    0.00    0.00
HeatSolve:  Result Norm   :    307.44950164482134
HeatSolve:  Relative Change :    9.6681039889626925E-005
HeatSolve: 
HeatSolve: 
HeatSolve: -------------------------------------
HeatSolve:  TEMPERATURE ITERATION           2
HeatSolve: -------------------------------------
HeatSolve: 
HeatSolve: Starting Assembly...
HeatSolve: Assembly:
HeatSolve: Assembly done
       1 0.3584E-13
ComputeChange: NS (ITER=2) (NRM,RELC): (  307.44950     0.40949329E-10 ) :: heat equation
HeatSolve: iter:    2 Assembly: (s)    0.00    0.00
HeatSolve: iter:    2 Solve:    (s)    0.00    0.00
HeatSolve:  Result Norm   :    307.44950165741119
HeatSolve:  Relative Change :    4.0949329473413474E-011
ComputeChange: SS (ITER=1) (NRM,RELC): (  307.44950     0.96681081E-04 ) :: heat equation
SolveEquations: -------------------------------------
SolveEquations:  Coupled system iteration:            2
SolveEquations: -------------------------------------
HeatSolver: Solving the energy equation for temperature
HeatSolve: 
HeatSolve: 
HeatSolve: -------------------------------------
HeatSolve:  TEMPERATURE ITERATION           1
HeatSolve: -------------------------------------
HeatSolve: 
HeatSolve: Starting Assembly...
HeatSolve: Assembly:
HeatSolve: Assembly done
       1 0.3172E-15
ComputeChange: NS (ITER=1) (NRM,RELC): (  307.44950     0.11629393E-12 ) :: heat equation
HeatSolve: iter:    1 Assembly: (s)    0.00    0.00
HeatSolve: iter:    1 Solve:    (s)    0.00    0.00
HeatSolve:  Result Norm   :    307.44950165744694
HeatSolve:  Relative Change :    1.1629392882635783E-013
ComputeChange: SS (ITER=2) (NRM,RELC): (  307.44950     0.11629393E-12 ) :: heat equation
FluxSolver: -------------------------------------
FluxSolver: Computing the flux and/or gradient
FluxSolver: -------------------------------------
FluxSolver:  Assembly Time:    6.6995620727539062E-004
       8 0.3661E-11
       7 0.1360E-10
ComputeChange: NS (ITER=2) (NRM,RELC): (  2103.8725      1.0680960     ) :: flux compute
FluxSolver:  Solution Time:    3.7908554077148438E-004
FluxSolver:  Result Norm:    7239.0204098605100
 Mesh dimension is:           2
CouplerSolver: Printing the data that is about to be written to Precice
CouplerSolver: Printing temperature flux 2
CouplerSolver: Node:     1 Index:    10 Value:  3534.0864 X=       0.00 Y=       0.00
CouplerSolver: Node:     3 Index:     1 Value:  2939.6541 X=       1.00 Y=       0.00
CouplerSolver: Node:    21 Index:     2 Value:  1622.2459 X=       0.89 Y=       0.00
CouplerSolver: Node:    22 Index:     3 Value:  1560.9003 X=       0.78 Y=       0.00
CouplerSolver: Node:    23 Index:     4 Value:  1673.5868 X=       0.67 Y=       0.00
CouplerSolver: Node:    24 Index:     5 Value:  1737.3753 X=       0.56 Y=       0.00
CouplerSolver: Node:    25 Index:     6 Value:  1830.7591 X=       0.44 Y=       0.00
CouplerSolver: Node:    26 Index:     7 Value:  1939.1938 X=       0.33 Y=       0.00
CouplerSolver: Node:    27 Index:     8 Value:  2101.6822 X=       0.22 Y=       0.00
CouplerSolver: Node:    28 Index:     9 Value:  2060.9031 X=       0.11 Y=       0.00
---[precice] [0m Time window completed
---[precice] [0m Mapping "Temperature" for t=0.8 from "Fluid-Mesh" to "Solid-Mesh"
---[precice] [0m iteration: 1, time-window: 9, time: 0.8 of 1, time-window-size: 0.1, max-time-step-size: 0.1, ongoing: yes, time-window-complete: yes, 
CouplerSolver: Ended
ResultOutputSolver: -------------------------------------
ResultOutputSolver: Saving in unstructured VTK XML (.vtu) format
ResultOutputSolver: -------------------------------------
MAIN: 
MAIN: -------------------------------------
MAIN: Time: 9/10:   9.000E-01
MAIN: -------------------------------------
MAIN: 
 Mesh dimension is:           2
 No reading iteration checkpoint required
CouplerSolver: Readinging the data from Precice
CouplerSolver: Printing the data that was read
CouplerSolver: Printing temperature
CouplerSolver: Node:     1 Index:    10 Value:   302.5321 X=       0.00 Y=       0.00
CouplerSolver: Node:     3 Index:     1 Value:   305.1583 X=       1.00 Y=       0.00
CouplerSolver: Node:    21 Index:     2 Value:   305.8442 X=       0.89 Y=       0.00
CouplerSolver: Node:    22 Index:     3 Value:   305.8014 X=       0.78 Y=       0.00
CouplerSolver: Node:    23 Index:     4 Value:   305.6835 X=       0.67 Y=       0.00
CouplerSolver: Node:    24 Index:     5 Value:   305.4893 X=       0.56 Y=       0.00
CouplerSolver: Node:    25 Index:     6 Value:   305.2290 X=       0.44 Y=       0.00
CouplerSolver: Node:    26 Index:     7 Value:   304.9081 X=       0.33 Y=       0.00
CouplerSolver: Node:    27 Index:     8 Value:   304.4952 X=       0.22 Y=       0.00
CouplerSolver: Node:    28 Index:     9 Value:   303.8836 X=       0.11 Y=       0.00
CouplerSolver: Ended
SolveEquations: -------------------------------------
SolveEquations:  Coupled system iteration:            1
SolveEquations: -------------------------------------
HeatSolver: Solving the energy equation for temperature
HeatSolve: 
HeatSolve: 
HeatSolve: -------------------------------------
HeatSolve:  TEMPERATURE ITERATION           1
HeatSolve: -------------------------------------
HeatSolve: 
HeatSolve: Starting Assembly...
HeatSolve: Assembly:
HeatSolve: Assembly done
       2 0.1488E-10
ComputeChange: NS (ITER=1) (NRM,RELC): (  307.47340     0.77723969E-04 ) :: heat equation
HeatSolve: iter:    1 Assembly: (s)    0.00    0.00
HeatSolve: iter:    1 Solve:    (s)    0.00    0.00
HeatSolve:  Result Norm   :    307.47339878179667
HeatSolve:  Relative Change :    7.7723969403840595E-005
HeatSolve: 
HeatSolve: 
HeatSolve: -------------------------------------
HeatSolve:  TEMPERATURE ITERATION           2
HeatSolve: -------------------------------------
HeatSolve: 
HeatSolve: Starting Assembly...
HeatSolve: Assembly:
HeatSolve: Assembly done
       1 0.2038E-13
ComputeChange: NS (ITER=2) (NRM,RELC): (  307.47340     0.23331297E-10 ) :: heat equation
HeatSolve: iter:    2 Assembly: (s)    0.00    0.00
HeatSolve: iter:    2 Solve:    (s)    0.00    0.00
HeatSolve:  Result Norm   :    307.47339878897043
HeatSolve:  Relative Change :    2.3331296871242424E-011
ComputeChange: SS (ITER=1) (NRM,RELC): (  307.47340     0.77723993E-04 ) :: heat equation
SolveEquations: -------------------------------------
SolveEquations:  Coupled system iteration:            2
SolveEquations: -------------------------------------
HeatSolver: Solving the energy equation for temperature
HeatSolve: 
HeatSolve: 
HeatSolve: -------------------------------------
HeatSolve:  TEMPERATURE ITERATION           1
HeatSolve: -------------------------------------
HeatSolve: 
HeatSolve: Starting Assembly...
HeatSolve: Assembly:
HeatSolve: Assembly done
       1 0.2514E-15
ComputeChange: NS (ITER=1) (NRM,RELC): (  307.47340     0.72100329E-13 ) :: heat equation
HeatSolve: iter:    1 Assembly: (s)    0.00    0.00
HeatSolve: iter:    1 Solve:    (s)    0.00    0.00
HeatSolve:  Result Norm   :    307.47339878899260
HeatSolve:  Relative Change :    7.2100329469248256E-014
ComputeChange: SS (ITER=2) (NRM,RELC): (  307.47340     0.72100329E-13 ) :: heat equation
FluxSolver: -------------------------------------
FluxSolver: Computing the flux and/or gradient
FluxSolver: -------------------------------------
FluxSolver:  Assembly Time:    6.6995620727539062E-004
       8 0.3705E-11
       7 0.1366E-10
ComputeChange: NS (ITER=2) (NRM,RELC): (  2084.0655      1.1058474     ) :: flux compute
FluxSolver:  Solution Time:    3.7908554077148438E-004
FluxSolver:  Result Norm:    7533.0435637108394
 Mesh dimension is:           2
CouplerSolver: Printing the data that is about to be written to Precice
CouplerSolver: Printing temperature flux 2
CouplerSolver: Node:     1 Index:    10 Value:  3510.9545 X=       0.00 Y=       0.00
CouplerSolver: Node:     3 Index:     1 Value:  2821.4241 X=       1.00 Y=       0.00
CouplerSolver: Node:    21 Index:     2 Value:  1583.9302 X=       0.89 Y=       0.00
CouplerSolver: Node:    22 Index:     3 Value:  1537.6083 X=       0.78 Y=       0.00
CouplerSolver: Node:    23 Index:     4 Value:  1658.0771 X=       0.67 Y=       0.00
CouplerSolver: Node:    24 Index:     5 Value:  1733.0348 X=       0.56 Y=       0.00
CouplerSolver: Node:    25 Index:     6 Value:  1833.7751 X=       0.44 Y=       0.00
CouplerSolver: Node:    26 Index:     7 Value:  1940.5544 X=       0.33 Y=       0.00
CouplerSolver: Node:    27 Index:     8 Value:  2090.1697 X=       0.22 Y=       0.00
CouplerSolver: Node:    28 Index:     9 Value:  2035.9067 X=       0.11 Y=       0.00
---[precice] [0m Time window completed
---[precice] [0m Mapping "Temperature" for t=0.9 from "Fluid-Mesh" to "Solid-Mesh"
---[precice] [0m iteration: 1, time-window: 10, time: 0.9 of 1, time-window-size: 0.1, max-time-step-size: 0.1, ongoing: yes, time-window-complete: yes, 
CouplerSolver: Ended
ResultOutputSolver: -------------------------------------
ResultOutputSolver: Saving in unstructured VTK XML (.vtu) format
ResultOutputSolver: -------------------------------------
MAIN: 
MAIN: -------------------------------------
MAIN: Time: 10/10:   1.000E+00
MAIN: -------------------------------------
MAIN: 
 Mesh dimension is:           2
 No reading iteration checkpoint required
CouplerSolver: Readinging the data from Precice
CouplerSolver: Printing the data that was read
CouplerSolver: Printing temperature
CouplerSolver: Node:     1 Index:    10 Value:   302.5735 X=       0.00 Y=       0.00
CouplerSolver: Node:     3 Index:     1 Value:   305.2589 X=       1.00 Y=       0.00
CouplerSolver: Node:    21 Index:     2 Value:   305.9007 X=       0.89 Y=       0.00
CouplerSolver: Node:    22 Index:     3 Value:   305.8398 X=       0.78 Y=       0.00
CouplerSolver: Node:    23 Index:     4 Value:   305.7045 X=       0.67 Y=       0.00
CouplerSolver: Node:    24 Index:     5 Value:   305.5006 X=       0.56 Y=       0.00
CouplerSolver: Node:    25 Index:     6 Value:   305.2436 X=       0.44 Y=       0.00
CouplerSolver: Node:    26 Index:     7 Value:   304.9376 X=       0.33 Y=       0.00
CouplerSolver: Node:    27 Index:     8 Value:   304.5403 X=       0.22 Y=       0.00
CouplerSolver: Node:    28 Index:     9 Value:   303.9319 X=       0.11 Y=       0.00
CouplerSolver: Ended
SolveEquations: -------------------------------------
SolveEquations:  Coupled system iteration:            1
SolveEquations: -------------------------------------
HeatSolver: Solving the energy equation for temperature
HeatSolve: 
HeatSolve: 
HeatSolve: -------------------------------------
HeatSolve:  TEMPERATURE ITERATION           1
HeatSolve: -------------------------------------
HeatSolve: 
HeatSolve: Starting Assembly...
HeatSolve: Assembly:
HeatSolve: Assembly done
       2 0.9220E-11
ComputeChange: NS (ITER=1) (NRM,RELC): (  307.49330     0.64738083E-04 ) :: heat equation
HeatSolve: iter:    1 Assembly: (s)    0.00    0.00
HeatSolve: iter:    1 Solve:    (s)    0.00    0.00
HeatSolve:  Result Norm   :    307.49330467183614
HeatSolve:  Relative Change :    6.4738083319053645E-005
HeatSolve: 
HeatSolve: 
HeatSolve: -------------------------------------
HeatSolve:  TEMPERATURE ITERATION           2
HeatSolve: -------------------------------------
HeatSolve: 
HeatSolve: Starting Assembly...
HeatSolve: Assembly:
HeatSolve: Assembly done
       1 0.9444E-14
ComputeChange: NS (ITER=2) (NRM,RELC): (  307.49330     0.11531054E-10 ) :: heat equation
HeatSolve: iter:    2 Assembly: (s)    0.00    0.00
HeatSolve: iter:    2 Solve:    (s)    0.00    0.00
HeatSolve:  Result Norm   :    307.49330467538186
HeatSolve:  Relative Change :    1.1531054121793817E-011
ComputeChange: SS (ITER=1) (NRM,RELC): (  307.49330     0.64738095E-04 ) :: heat equation
SolveEquations: -------------------------------------
SolveEquations:  Coupled system iteration:            2
SolveEquations: -------------------------------------
HeatSolver: Solving the energy equation for temperature
HeatSolve: 
HeatSolve: 
HeatSolve: -------------------------------------
HeatSolve:  TEMPERATURE ITERATION           1
HeatSolve: -------------------------------------
HeatSolve: 
HeatSolve: Starting Assembly...
HeatSolve: Assembly:
HeatSolve: Assembly done
       1 0.3010E-15
ComputeChange: NS (ITER=1) (NRM,RELC): (  307.49330     0.34753806E-13 ) :: heat equation
HeatSolve: iter:    1 Assembly: (s)    0.00    0.00
HeatSolve: iter:    1 Solve:    (s)    0.00    0.00
HeatSolve:  Result Norm   :    307.49330467539255
HeatSolve:  Relative Change :    3.4753806288931843E-014
ComputeChange: SS (ITER=2) (NRM,RELC): (  307.49330     0.34753806E-13 ) :: heat equation
FluxSolver: -------------------------------------
FluxSolver: Computing the flux and/or gradient
FluxSolver: -------------------------------------
FluxSolver:  Assembly Time:    6.0796737670898438E-004
       8 0.3737E-11
       7 0.1374E-10
ComputeChange: NS (ITER=2) (NRM,RELC): (  2067.3710      1.1386326     ) :: flux compute
FluxSolver:  Solution Time:    3.2091140747070312E-004
FluxSolver:  Result Norm:    7811.5791175878730
 Mesh dimension is:           2
CouplerSolver: Printing the data that is about to be written to Precice
CouplerSolver: Printing temperature flux 2
CouplerSolver: Node:     1 Index:    10 Value:  3495.0141 X=       0.00 Y=       0.00
CouplerSolver: Node:     3 Index:     1 Value:  2725.1074 X=       1.00 Y=       0.00
CouplerSolver: Node:    21 Index:     2 Value:  1556.1184 X=       0.89 Y=       0.00
CouplerSolver: Node:    22 Index:     3 Value:  1523.4976 X=       0.78 Y=       0.00
CouplerSolver: Node:    23 Index:     4 Value:  1651.3578 X=       0.67 Y=       0.00
CouplerSolver: Node:    24 Index:     5 Value:  1734.3885 X=       0.56 Y=       0.00
CouplerSolver: Node:    25 Index:     6 Value:  1835.7580 X=       0.44 Y=       0.00
CouplerSolver: Node:    26 Index:     7 Value:  1933.1075 X=       0.33 Y=       0.00
CouplerSolver: Node:    27 Index:     8 Value:  2069.0943 X=       0.22 Y=       0.00
CouplerSolver: Node:    28 Index:     9 Value:  2010.4543 X=       0.11 Y=       0.00
---[precice] [0m Time window completed
---[precice] [0m Mapping "Temperature" for t=1 from "Fluid-Mesh" to "Solid-Mesh"
---[precice] [0m iteration: 1, time-window: 11, time: 1 of 1, time-window-size: 0.1, max-time-step-size: 0, ongoing: no, time-window-complete: yes, 
CouplerSolver: Ended
ResultOutputSolver: -------------------------------------
ResultOutputSolver: Saving in unstructured VTK XML (.vtu) format
ResultOutputSolver: -------------------------------------
 Mesh dimension is:           2
CouplerSolver: Precice Finalize
---[precice] [0m Close communication channels
CouplerSolver: Ended
MAIN: *** Elmer Solver: ALL DONE ***
MAIN: The end
SOLVER TOTAL TIME(CPU,REAL):         0.32        4.49
ELMER SOLVER FINISHED AT: 2024/06/30 17:39:23
