ELMER SOLVER (v 9.0) STARTED AT: 2024/06/30 17:39:21
ParCommInit:  Initialize #PEs:            1
MAIN: 
MAIN: =============================================================
MAIN: ElmerSolver finite element software, Welcome!
MAIN: This program is free software licensed under (L)GPL
MAIN: Copyright 1st April 1995 - , CSC - IT Center for Science Ltd.
MAIN: Webpage http://www.csc.fi/elmer, Email elmeradm@csc.fi
MAIN: Version: 9.0 (Rev: 00bb19d71, Compiled: 2024-06-19)
MAIN:  Running one task without MPI parallelization.
MAIN:  Running with just one thread per task.
MAIN:  MUMPS library linked in.
MAIN:  Lua interpreter linked in.
MAIN: =============================================================
MAIN: 
MAIN: 
MAIN: -------------------------------------
MAIN: Reading Model: case.sif
LoadInputFile: Scanning input file: case.sif
LoadInputFile: Scanning only size info
LoadInputFile: First time visiting
LoadInputFile: Reading base load of sif file
LoadInputFile: Loading input file: case.sif
LoadInputFile: Reading base load of sif file
CheckKeyword:  Unlisted keyword: [maskname] in section: [simulation]
CheckKeyword:  Unlisted keyword: [participantname] in section: [simulation]
CheckKeyword:  Unlisted keyword: [meshname] in section: [simulation]
CheckKeyword:  Unlisted keyword: [configpath] in section: [simulation]
CheckKeyword:  Unlisted keyword: [readdataname] in section: [solver 4]
CheckKeyword:  Unlisted keyword: [writedataname] in section: [solver 4]
CheckKeyword:  Unlisted keyword: [readdataname] in section: [solver 5]
CheckKeyword:  Unlisted keyword: [writedataname] in section: [solver 5]
CheckKeyword:  Unlisted keyword: [readdataname] in section: [solver 6]
CheckKeyword:  Unlisted keyword: [writedataname] in section: [solver 6]
CheckKeyword:  Unlisted keyword: [readdataname] in section: [solver 7]
CheckKeyword:  Unlisted keyword: [writedataname] in section: [solver 7]
CheckKeyword:  Unlisted keyword: [coupler interface] in section: [boundary condition 4]
LoadInputFile: Number of BCs: 4
LoadInputFile: Number of Body Forces: 1
LoadInputFile: Number of Initial Conditions: 1
LoadInputFile: Number of Materials: 1
LoadInputFile: Number of Equations: 1
LoadInputFile: Number of Solvers: 7
LoadInputFile: Number of Bodies: 1
ListTagKeywords: Setting weight for keywords!
ListTagKeywords: No parameters width suffix: normalize by area
ListTagKeywords: Setting weight for keywords!
ListTagKeywords: No parameters width suffix: normalize by volume
ElmerAsciiMesh: Base mesh name: ./Fluid_Participant_Mesh
ReadTargetNames: Reading names info from file: ./Fluid_Participant_Mesh/mesh.names
ReadTargetNames: Mapped 4 body names to indexes
ReadTargetNames: Mapped 1 bc names to indexes
LoadMesh: Elapsed REAL time:     0.0007 (s)
MAIN: -------------------------------------
AddVtuOutputSolverHack: Adding ResultOutputSolver to write VTU output in file: fluid
OptimizeBandwidth: Initial bandwidth for navier-stokes: 157
OptimizeBandwidth: Optimized bandwidth for navier-stokes: 7
OptimizeBandwidth: Initial bandwidth for heat equation: 157
OptimizeBandwidth: Optimized bandwidth for heat equation: 7
FluxSolver_init: Saving flux to: temperature Flux
OptimizeBandwidth: Initial bandwidth for flux compute: 157
OptimizeBandwidth: Optimized bandwidth for flux compute: 7
MAIN: Number of timesteps to be saved: 10
 Mesh dimension is:           2
CouplerSolver: Initializing Coupler Solver
 coupler interface Fluid Fluid-Mesh ../precice-config.xml
CouplerSolver: Number of nodes at interface:10
CouplerSolver: Created nodes at interface
CouplerSolver: Using existing variable : temperature flux 2
CouplerSolver: Using existing variable : temperature
CouplerSolver: Initializing Precice
---[precice] [0m This is preCICE version 3.1.2
---[precice] [0m Revision info: no-info [git failed to run]
---[precice] [0m Build type: Release (without debug log)
---[precice] [0m Configuring preCICE with configuration "../precice-config.xml"
---[precice] [0m I am participant "Fluid"
CouplerSolver: Setting up mesh in Precice
---[precice] [0m Setting up primary communication to coupling partner/s
---[precice] [0m Primary ranks are connected
---[precice] [0m Setting up preliminary secondary communication to coupling partner/s
---[precice] [0m Prepare partition for mesh Fluid-Mesh
---[precice] [0m Gather mesh Fluid-Mesh
---[precice] [0m Send global mesh Fluid-Mesh
---[precice] [0m Receive global mesh Solid-Mesh
---[precice] [0m Setting up secondary communication to coupling partner/s
---[precice] [0m Secondary ranks are connected
---[precice] [0m Computing "nearest-neighbor" mapping from mesh "Solid-Mesh" to mesh "Fluid-Mesh" in "read" direction.
---[precice] [0m Mapping distance min:0 max:2.99999e-12 avg: 1.39998e-12 var: 1.03997e-24 cnt: 10
---[precice] [0m Mapping "Heat-Flux" for t=0 from "Solid-Mesh" to "Fluid-Mesh" (skipped zero sample)
---[precice] [0m Mapping "Heat-Flux" for t=0.1 from "Solid-Mesh" to "Fluid-Mesh"
---[precice] [0m iteration: 1, time-window: 1, time: 0 of 1, time-window-size: 0.1, max-time-step-size: 0.1, ongoing: yes, time-window-complete: no, write-initial-data 
 TODO: Provide initial data if needed
CouplerSolver: Ended
MAIN: 
MAIN: -------------------------------------
MAIN: Time: 1/10:   1.000E-01
MAIN: -------------------------------------
MAIN: 
 Mesh dimension is:           2
 No reading iteration checkpoint required
CouplerSolver: Readinging the data from Precice
CouplerSolver: Printing the data that was read
CouplerSolver: Printing temperature flux 2
CouplerSolver: Node:     1 Index:     1 Value:  3999.1547 X=       0.00 Y=       0.00
CouplerSolver: Node:     2 Index:    10 Value:  3999.2159 X=       1.00 Y=       0.00
CouplerSolver: Node:    12 Index:     2 Value:  3999.1762 X=       0.11 Y=       0.00
CouplerSolver: Node:    13 Index:     3 Value:  3999.1761 X=       0.22 Y=       0.00
CouplerSolver: Node:    14 Index:     4 Value:  3999.1769 X=       0.33 Y=       0.00
CouplerSolver: Node:    15 Index:     5 Value:  3999.1771 X=       0.44 Y=       0.00
CouplerSolver: Node:    16 Index:     6 Value:  3999.1772 X=       0.56 Y=       0.00
CouplerSolver: Node:    17 Index:     7 Value:  3999.1775 X=       0.67 Y=       0.00
CouplerSolver: Node:    18 Index:     8 Value:  3999.1787 X=       0.78 Y=       0.00
CouplerSolver: Node:    19 Index:     9 Value:  3999.1855 X=       0.89 Y=       0.00
CouplerSolver: Ended
SolveEquations: -------------------------------------
SolveEquations:  Coupled system iteration:            1
SolveEquations: -------------------------------------
FlowSolve: 
FlowSolve: 
FlowSolve: -------------------------------------
FlowSolve:  NAVIER-STOKES ITERATION           1
FlowSolve: -------------------------------------
FlowSolve: 
FlowSolve: Starting Assembly...
FlowSolve: Assembly:
FlowSolve: Assembly done
FlowSolve: Dirichlet conditions done
      10 0.6179E-01
      19 0.3392E-11
ComputeChange: NS (ITER=1) (NRM,RELC): ( 0.41746527      2.0000000     ) :: navier-stokes
FlowSolve: iter:    1 Assembly: (s)    0.01    0.01
FlowSolve: iter:    1 Solve:    (s)    0.00    0.00
FlowSolve:  Result Norm     :   0.41746526692535602
FlowSolve:  Relative Change :    2.0000000000000000
FlowSolve: 
FlowSolve: 
FlowSolve: -------------------------------------
FlowSolve:  NAVIER-STOKES ITERATION           2
FlowSolve: -------------------------------------
FlowSolve: 
FlowSolve: Starting Assembly...
FlowSolve: Assembly:
FlowSolve: Assembly done
FlowSolve: Dirichlet conditions done
      10 0.5532E-04
      14 0.1743E-10
ComputeChange: NS (ITER=2) (NRM,RELC): ( 0.44851272     0.71704957E-01 ) :: navier-stokes
FlowSolve: iter:    2 Assembly: (s)    0.01    0.02
FlowSolve: iter:    2 Solve:    (s)    0.00    0.01
FlowSolve:  Result Norm     :   0.44851272412803889
FlowSolve:  Relative Change :    7.1704956762044386E-002
FlowSolve: 
FlowSolve: 
FlowSolve: -------------------------------------
FlowSolve:  NAVIER-STOKES ITERATION           3
FlowSolve: -------------------------------------
FlowSolve: 
FlowSolve: Starting Assembly...
FlowSolve: Assembly:
FlowSolve: Assembly done
FlowSolve: Dirichlet conditions done
      10 0.1213E-06
      13 0.2717E-10
ComputeChange: NS (ITER=3) (NRM,RELC): ( 0.46172916     0.29039390E-01 ) :: navier-stokes
FlowSolve: iter:    3 Assembly: (s)    0.01    0.02
FlowSolve: iter:    3 Solve:    (s)    0.00    0.01
FlowSolve:  Result Norm     :   0.46172915866000019
FlowSolve:  Relative Change :    2.9039390038787999E-002
FlowSolve: 
FlowSolve: 
FlowSolve: -------------------------------------
FlowSolve:  NAVIER-STOKES ITERATION           4
FlowSolve: -------------------------------------
FlowSolve: 
FlowSolve: Starting Assembly...
FlowSolve: Assembly:
FlowSolve: Assembly done
FlowSolve: Dirichlet conditions done
      10 0.3310E-05
      13 0.5240E-11
ComputeChange: NS (ITER=4) (NRM,RELC): ( 0.46691664     0.11172139E-01 ) :: navier-stokes
FlowSolve: iter:    4 Assembly: (s)    0.01    0.03
FlowSolve: iter:    4 Solve:    (s)    0.00    0.01
FlowSolve:  Result Norm     :   0.46691663873747352
FlowSolve:  Relative Change :    1.1172139241918113E-002
FlowSolve: 
FlowSolve: 
FlowSolve: -------------------------------------
FlowSolve:  NAVIER-STOKES ITERATION           5
FlowSolve: -------------------------------------
FlowSolve: 
FlowSolve: Starting Assembly...
FlowSolve: Assembly:
FlowSolve: Assembly done
FlowSolve: Dirichlet conditions done
      10 0.3153E-06
      13 0.3876E-11
ComputeChange: NS (ITER=5) (NRM,RELC): ( 0.46897182     0.43919350E-02 ) :: navier-stokes
FlowSolve: iter:    5 Assembly: (s)    0.01    0.04
FlowSolve: iter:    5 Solve:    (s)    0.00    0.01
FlowSolve:  Result Norm     :   0.46897181937532562
FlowSolve:  Relative Change :    4.3919350004514987E-003
ComputeChange: SS (ITER=1) (NRM,RELC): ( 0.46897182      2.0000000     ) :: navier-stokes
HeatSolver: Solving the energy equation for temperature
HeatSolve: 
HeatSolve: 
HeatSolve: -------------------------------------
HeatSolve:  TEMPERATURE ITERATION           1
HeatSolve: -------------------------------------
HeatSolve: 
HeatSolve: Starting Assembly...
HeatSolve: Assembly:
HeatSolve: Assembly done
       3 0.6130E-12
ComputeChange: NS (ITER=1) (NRM,RELC): (  300.27904      2.0000000     ) :: heat equation
HeatSolve: iter:    1 Assembly: (s)    0.00    0.00
HeatSolve: iter:    1 Solve:    (s)    0.00    0.00
HeatSolve:  Result Norm   :    300.27904455589606
HeatSolve:  Relative Change :    2.0000000000000000
HeatSolve: 
HeatSolve: 
HeatSolve: -------------------------------------
HeatSolve:  TEMPERATURE ITERATION           2
HeatSolve: -------------------------------------
HeatSolve: 
HeatSolve: Starting Assembly...
HeatSolve: Assembly:
HeatSolve: Assembly done
       1 0.9661E-15
ComputeChange: NS (ITER=2) (NRM,RELC): (  300.27904     0.11547421E-13 ) :: heat equation
HeatSolve: iter:    2 Assembly: (s)    0.00    0.01
HeatSolve: iter:    2 Solve:    (s)    0.00    0.00
HeatSolve:  Result Norm   :    300.27904455589260
HeatSolve:  Relative Change :    1.1547421018464890E-014
ComputeChange: SS (ITER=1) (NRM,RELC): (  300.27904      2.0000000     ) :: heat equation
SolveEquations: -------------------------------------
SolveEquations:  Coupled system iteration:            2
SolveEquations: -------------------------------------
FlowSolve: 
FlowSolve: 
FlowSolve: -------------------------------------
FlowSolve:  NAVIER-STOKES ITERATION           1
FlowSolve: -------------------------------------
FlowSolve: 
FlowSolve: Starting Assembly...
FlowSolve: Assembly:
FlowSolve: Assembly done
FlowSolve: Dirichlet conditions done
      10 0.6635E-07
      13 0.1291E-10
ComputeChange: NS (ITER=1) (NRM,RELC): ( 0.46979086     0.17449301E-02 ) :: navier-stokes
FlowSolve: iter:    1 Assembly: (s)    0.01    0.01
FlowSolve: iter:    1 Solve:    (s)    0.00    0.00
FlowSolve:  Result Norm     :   0.46979085700785689
FlowSolve:  Relative Change :    1.7449301152168064E-003
FlowSolve: 
FlowSolve: 
FlowSolve: -------------------------------------
FlowSolve:  NAVIER-STOKES ITERATION           2
FlowSolve: -------------------------------------
FlowSolve: 
FlowSolve: Starting Assembly...
FlowSolve: Assembly:
FlowSolve: Assembly done
FlowSolve: Dirichlet conditions done
      10 0.7948E-08
      12 0.5215E-10
ComputeChange: NS (ITER=2) (NRM,RELC): ( 0.47011913     0.69851372E-03 ) :: navier-stokes
FlowSolve: iter:    2 Assembly: (s)    0.01    0.02
FlowSolve: iter:    2 Solve:    (s)    0.00    0.00
FlowSolve:  Result Norm     :   0.47011912701872327
FlowSolve:  Relative Change :    6.9851372247387359E-004
FlowSolve: 
FlowSolve: 
FlowSolve: -------------------------------------
FlowSolve:  NAVIER-STOKES ITERATION           3
FlowSolve: -------------------------------------
FlowSolve: 
FlowSolve: Starting Assembly...
FlowSolve: Assembly:
FlowSolve: Assembly done
FlowSolve: Dirichlet conditions done
      10 0.7366E-08
      12 0.7296E-11
ComputeChange: NS (ITER=3) (NRM,RELC): ( 0.47025113     0.28075204E-03 ) :: navier-stokes
FlowSolve: iter:    3 Assembly: (s)    0.01    0.03
FlowSolve: iter:    3 Solve:    (s)    0.00    0.01
FlowSolve:  Result Norm     :   0.47025113245180544
FlowSolve:  Relative Change :    2.8075203730176855E-004
FlowSolve: 
FlowSolve: 
FlowSolve: -------------------------------------
FlowSolve:  NAVIER-STOKES ITERATION           4
FlowSolve: -------------------------------------
FlowSolve: 
FlowSolve: Starting Assembly...
FlowSolve: Assembly:
FlowSolve: Assembly done
FlowSolve: Dirichlet conditions done
      10 0.7526E-07
      12 0.1628E-11
ComputeChange: NS (ITER=4) (NRM,RELC): ( 0.47030441     0.11328030E-03 ) :: navier-stokes
FlowSolve: iter:    4 Assembly: (s)    0.01    0.03
FlowSolve: iter:    4 Solve:    (s)    0.00    0.01
FlowSolve:  Result Norm     :   0.47030440565966913
FlowSolve:  Relative Change :    1.1328030234271422E-004
FlowSolve: 
FlowSolve: 
FlowSolve: -------------------------------------
FlowSolve:  NAVIER-STOKES ITERATION           5
FlowSolve: -------------------------------------
FlowSolve: 
FlowSolve: Starting Assembly...
FlowSolve: Assembly:
FlowSolve: Assembly done
FlowSolve: Dirichlet conditions done
      10 0.3201E-08
      12 0.8164E-12
ComputeChange: NS (ITER=5) (NRM,RELC): ( 0.47032595     0.45801429E-04 ) :: navier-stokes
FlowSolve: iter:    5 Assembly: (s)    0.01    0.04
FlowSolve: iter:    5 Solve:    (s)    0.00    0.01
FlowSolve:  Result Norm     :   0.47032594676665812
FlowSolve:  Relative Change :    4.5801428655629510E-005
ComputeChange: SS (ITER=2) (NRM,RELC): ( 0.47032595     0.28832761E-02 ) :: navier-stokes
HeatSolver: Solving the energy equation for temperature
HeatSolve: 
HeatSolve: 
HeatSolve: -------------------------------------
HeatSolve:  TEMPERATURE ITERATION           1
HeatSolve: -------------------------------------
HeatSolve: 
HeatSolve: Starting Assembly...
HeatSolve: Assembly:
HeatSolve: Assembly done
       2 0.3893E-12
ComputeChange: NS (ITER=1) (NRM,RELC): (  300.27908     0.10151098E-06 ) :: heat equation
HeatSolve: iter:    1 Assembly: (s)    0.00    0.00
HeatSolve: iter:    1 Solve:    (s)    0.00    0.00
HeatSolve:  Result Norm   :    300.27907503751567
HeatSolve:  Relative Change :    1.0151098478725615E-007
HeatSolve: 
HeatSolve: 
HeatSolve: -------------------------------------
HeatSolve:  TEMPERATURE ITERATION           2
HeatSolve: -------------------------------------
HeatSolve: 
HeatSolve: Starting Assembly...
HeatSolve: Assembly:
HeatSolve: Assembly done
       1 0.6464E-15
ComputeChange: NS (ITER=2) (NRM,RELC): (  300.27908     0.75720786E-15 ) :: heat equation
HeatSolve: iter:    2 Assembly: (s)    0.00    0.01
HeatSolve: iter:    2 Solve:    (s)    0.00    0.00
HeatSolve:  Result Norm   :    300.27907503751544
HeatSolve:  Relative Change :    7.5720785877212718E-016
ComputeChange: SS (ITER=2) (NRM,RELC): (  300.27908     0.10151098E-06 ) :: heat equation
SolveEquations: -------------------------------------
SolveEquations:  Coupled system iteration:            3
SolveEquations: -------------------------------------
FlowSolve: 
FlowSolve: 
FlowSolve: -------------------------------------
FlowSolve:  NAVIER-STOKES ITERATION           1
FlowSolve: -------------------------------------
FlowSolve: 
FlowSolve: Starting Assembly...
FlowSolve: Assembly:
FlowSolve: Assembly done
FlowSolve: Dirichlet conditions done
      10 0.8717E-09
      11 0.5483E-10
ComputeChange: NS (ITER=1) (NRM,RELC): ( 0.47033467     0.18550182E-04 ) :: navier-stokes
FlowSolve: iter:    1 Assembly: (s)    0.01    0.01
FlowSolve: iter:    1 Solve:    (s)    0.00    0.00
FlowSolve:  Result Norm     :   0.47033467147950314
FlowSolve:  Relative Change :    1.8550182022689029E-005
FlowSolve: 
FlowSolve: 
FlowSolve: -------------------------------------
FlowSolve:  NAVIER-STOKES ITERATION           2
FlowSolve: -------------------------------------
FlowSolve: 
FlowSolve: Starting Assembly...
FlowSolve: Assembly:
FlowSolve: Assembly done
FlowSolve: Dirichlet conditions done
      10 0.3090E-09
      11 0.1667E-10
ComputeChange: NS (ITER=2) (NRM,RELC): ( 0.47033821     0.75240881E-05 ) :: navier-stokes
FlowSolve: iter:    2 Assembly: (s)    0.01    0.02
FlowSolve: iter:    2 Solve:    (s)    0.00    0.00
FlowSolve:  Result Norm     :   0.47033821033230433
FlowSolve:  Relative Change :    7.5240880642206949E-006
FlowSolve: 
FlowSolve: 
FlowSolve: -------------------------------------
FlowSolve:  NAVIER-STOKES ITERATION           3
FlowSolve: -------------------------------------
FlowSolve: 
FlowSolve: Starting Assembly...
FlowSolve: Assembly:
FlowSolve: Assembly done
FlowSolve: Dirichlet conditions done
      10 0.1385E-09
      11 0.6276E-11
ComputeChange: NS (ITER=3) (NRM,RELC): ( 0.47033965     0.30553411E-05 ) :: navier-stokes
FlowSolve: iter:    3 Assembly: (s)    0.01    0.02
FlowSolve: iter:    3 Solve:    (s)    0.00    0.01
FlowSolve:  Result Norm     :   0.47033964737815864
FlowSolve:  Relative Change :    3.0553410873538072E-006
FlowSolve: 
FlowSolve: 
FlowSolve: -------------------------------------
FlowSolve:  NAVIER-STOKES ITERATION           4
FlowSolve: -------------------------------------
FlowSolve: 
FlowSolve: Starting Assembly...
FlowSolve: Assembly:
FlowSolve: Assembly done
FlowSolve: Dirichlet conditions done
       9 0.7639E-11
ComputeChange: NS (ITER=4) (NRM,RELC): ( 0.47034023     0.12419759E-05 ) :: navier-stokes
FlowSolve: iter:    4 Assembly: (s)    0.01    0.03
FlowSolve: iter:    4 Solve:    (s)    0.00    0.01
FlowSolve:  Result Norm     :   0.47034023152902921
FlowSolve:  Relative Change :    1.2419759020307375E-006
FlowSolve: 
FlowSolve: 
FlowSolve: -------------------------------------
FlowSolve:  NAVIER-STOKES ITERATION           5
FlowSolve: -------------------------------------
FlowSolve: 
FlowSolve: Starting Assembly...
FlowSolve: Assembly:
FlowSolve: Assembly done
FlowSolve: Dirichlet conditions done
      10 0.1119E-10
      10 0.1119E-10
ComputeChange: NS (ITER=5) (NRM,RELC): ( 0.47034047     0.50511814E-06 ) :: navier-stokes
FlowSolve: iter:    5 Assembly: (s)    0.01    0.04
FlowSolve: iter:    5 Solve:    (s)    0.00    0.01
FlowSolve:  Result Norm     :   0.47034046910647009
FlowSolve:  Relative Change :    5.0511813567861185E-007
ComputeChange: SS (ITER=3) (NRM,RELC): ( 0.47034047     0.30876705E-04 ) :: navier-stokes
HeatSolver: Solving the energy equation for temperature
HeatSolve: 
HeatSolve: 
HeatSolve: -------------------------------------
HeatSolve:  TEMPERATURE ITERATION           1
HeatSolve: -------------------------------------
HeatSolve: 
HeatSolve: Starting Assembly...
HeatSolve: Assembly:
HeatSolve: Assembly done
       1 0.6048E-11
ComputeChange: NS (ITER=1) (NRM,RELC): (  300.27908     0.15122094E-08 ) :: heat equation
HeatSolve: iter:    1 Assembly: (s)    0.00    0.00
HeatSolve: iter:    1 Solve:    (s)    0.00    0.00
HeatSolve:  Result Norm   :    300.27907549160028
HeatSolve:  Relative Change :    1.5122094020023692E-009
ComputeChange: SS (ITER=3) (NRM,RELC): (  300.27908     0.15122094E-08 ) :: heat equation
SolveEquations: Coupled system iteration: 3
WARNING:: SolveEquations: Numerical Error: Coupled system did not converge
FluxSolver: -------------------------------------
FluxSolver: Computing the flux and/or gradient
FluxSolver: -------------------------------------
FluxSolver:  Assembly Time:    1.0678768157958984E-003
       7 0.2729E-10
       7 0.1144E-10
ComputeChange: NS (ITER=2) (NRM,RELC): (  660.62796      2.0000000     ) :: flux compute
FluxSolver:  Solution Time:    4.6515464782714844E-004
FluxSolver:  Result Norm:    660.62796417828054
 Mesh dimension is:           2
CouplerSolver: Printing the data that is about to be written to Precice
CouplerSolver: Printing temperature
CouplerSolver: Node:     1 Index:     1 Value:   301.7048 X=       0.00 Y=       0.00
CouplerSolver: Node:     2 Index:    10 Value:   302.0293 X=       1.00 Y=       0.00
CouplerSolver: Node:    12 Index:     2 Value:   303.1637 X=       0.11 Y=       0.00
CouplerSolver: Node:    13 Index:     3 Value:   303.5757 X=       0.22 Y=       0.00
CouplerSolver: Node:    14 Index:     4 Value:   303.7007 X=       0.33 Y=       0.00
CouplerSolver: Node:    15 Index:     5 Value:   303.7405 X=       0.44 Y=       0.00
CouplerSolver: Node:    16 Index:     6 Value:   303.7514 X=       0.56 Y=       0.00
CouplerSolver: Node:    17 Index:     7 Value:   303.7425 X=       0.67 Y=       0.00
CouplerSolver: Node:    18 Index:     8 Value:   303.6801 X=       0.78 Y=       0.00
CouplerSolver: Node:    19 Index:     9 Value:   303.3841 X=       0.89 Y=       0.00
---[precice] [0m Time window completed
---[precice] [0m Mapping "Heat-Flux" for t=0.2 from "Solid-Mesh" to "Fluid-Mesh"
---[precice] [0m iteration: 1, time-window: 2, time: 0.1 of 1, time-window-size: 0.1, max-time-step-size: 0.1, ongoing: yes, time-window-complete: yes, 
CouplerSolver: Ended
ResultOutputSolver: -------------------------------------
ResultOutputSolver: Saving with prefix: fluid
ResultOutputSolver: Creating list for saving - if not present
CreateListForSaving: Field Variables for Saving
ResultOutputSolver: Saving in unstructured VTK XML (.vtu) format
VtuOutputSolver: Saving results in VTK XML format with prefix: fluid
VtuOutputSolver: Saving number of partitions: 1
ResultOutputSolver: -------------------------------------
MAIN: 
MAIN: -------------------------------------
MAIN: Time: 2/10:   2.000E-01
MAIN: Estimated time left:  1.7 seconds
MAIN: -------------------------------------
MAIN: 
 Mesh dimension is:           2
 No reading iteration checkpoint required
CouplerSolver: Readinging the data from Precice
CouplerSolver: Printing the data that was read
CouplerSolver: Printing temperature flux 2
CouplerSolver: Node:     1 Index:     1 Value:  3813.3337 X=       0.00 Y=       0.00
CouplerSolver: Node:     2 Index:    10 Value:  4917.8669 X=       1.00 Y=       0.00
CouplerSolver: Node:    12 Index:     2 Value:  2195.6473 X=       0.11 Y=       0.00
CouplerSolver: Node:    13 Index:     3 Value:  2457.3070 X=       0.22 Y=       0.00
CouplerSolver: Node:    14 Index:     4 Value:  2460.6188 X=       0.33 Y=       0.00
CouplerSolver: Node:    15 Index:     5 Value:  2476.8893 X=       0.44 Y=       0.00
CouplerSolver: Node:    16 Index:     6 Value:  2472.3493 X=       0.56 Y=       0.00
CouplerSolver: Node:    17 Index:     7 Value:  2439.6148 X=       0.67 Y=       0.00
CouplerSolver: Node:    18 Index:     8 Value:  2323.4107 X=       0.78 Y=       0.00
CouplerSolver: Node:    19 Index:     9 Value:  2681.7465 X=       0.89 Y=       0.00
CouplerSolver: Ended
SolveEquations: -------------------------------------
SolveEquations:  Coupled system iteration:            1
SolveEquations: -------------------------------------
FlowSolve: 
FlowSolve: 
FlowSolve: -------------------------------------
FlowSolve:  NAVIER-STOKES ITERATION           1
FlowSolve: -------------------------------------
FlowSolve: 
FlowSolve: Starting Assembly...
FlowSolve: Assembly:
FlowSolve: Assembly done
FlowSolve: Dirichlet conditions done
      10 0.2600E-05
      14 0.6409E-10
ComputeChange: NS (ITER=1) (NRM,RELC): ( 0.66226817     0.33891265     ) :: navier-stokes
FlowSolve: iter:    1 Assembly: (s)    0.01    0.01
FlowSolve: iter:    1 Solve:    (s)    0.00    0.00
FlowSolve:  Result Norm     :   0.66226816562993474
FlowSolve:  Relative Change :   0.33891264932503806
FlowSolve: 
FlowSolve: 
FlowSolve: -------------------------------------
FlowSolve:  NAVIER-STOKES ITERATION           2
FlowSolve: -------------------------------------
FlowSolve: 
FlowSolve: Starting Assembly...
FlowSolve: Assembly:
FlowSolve: Assembly done
FlowSolve: Dirichlet conditions done
      10 0.1944E-06
      13 0.5479E-11
ComputeChange: NS (ITER=2) (NRM,RELC): ( 0.67593636     0.20427661E-01 ) :: navier-stokes
FlowSolve: iter:    2 Assembly: (s)    0.01    0.02
FlowSolve: iter:    2 Solve:    (s)    0.00    0.01
FlowSolve:  Result Norm     :   0.67593635983984468
FlowSolve:  Relative Change :    2.0427661018575165E-002
FlowSolve: 
FlowSolve: 
FlowSolve: -------------------------------------
FlowSolve:  NAVIER-STOKES ITERATION           3
FlowSolve: -------------------------------------
FlowSolve: 
FlowSolve: Starting Assembly...
FlowSolve: Assembly:
FlowSolve: Assembly done
FlowSolve: Dirichlet conditions done
      10 0.1645E-06
      13 0.3050E-11
ComputeChange: NS (ITER=3) (NRM,RELC): ( 0.67675598     0.12118326E-02 ) :: navier-stokes
FlowSolve: iter:    3 Assembly: (s)    0.01    0.02
FlowSolve: iter:    3 Solve:    (s)    0.00    0.01
FlowSolve:  Result Norm     :   0.67675597815357458
FlowSolve:  Relative Change :    1.2118325663701434E-003
FlowSolve: 
FlowSolve: 
FlowSolve: -------------------------------------
FlowSolve:  NAVIER-STOKES ITERATION           4
FlowSolve: -------------------------------------
FlowSolve: 
FlowSolve: Starting Assembly...
FlowSolve: Assembly:
FlowSolve: Assembly done
FlowSolve: Dirichlet conditions done
      10 0.1921E-08
      12 0.1739E-11
ComputeChange: NS (ITER=4) (NRM,RELC): ( 0.67680557     0.73270052E-04 ) :: navier-stokes
FlowSolve: iter:    4 Assembly: (s)    0.01    0.03
FlowSolve: iter:    4 Solve:    (s)    0.00    0.01
FlowSolve:  Result Norm     :   0.67680556591575225
FlowSolve:  Relative Change :    7.3270051731215728E-005
FlowSolve: 
FlowSolve: 
FlowSolve: -------------------------------------
FlowSolve:  NAVIER-STOKES ITERATION           5
FlowSolve: -------------------------------------
FlowSolve: 
FlowSolve: Starting Assembly...
FlowSolve: Assembly:
FlowSolve: Assembly done
FlowSolve: Dirichlet conditions done
      10 0.4003E-10
      10 0.4003E-10
ComputeChange: NS (ITER=5) (NRM,RELC): ( 0.67680858     0.44492671E-05 ) :: navier-stokes
FlowSolve: iter:    5 Assembly: (s)    0.01    0.04
FlowSolve: iter:    5 Solve:    (s)    0.00    0.01
FlowSolve:  Result Norm     :   0.67680857721118670
FlowSolve:  Relative Change :    4.4492670968930548E-006
ComputeChange: SS (ITER=1) (NRM,RELC): ( 0.67680858     0.35996736     ) :: navier-stokes
HeatSolver: Solving the energy equation for temperature
HeatSolve: 
HeatSolve: 
HeatSolve: -------------------------------------
HeatSolve:  TEMPERATURE ITERATION           1
HeatSolve: -------------------------------------
HeatSolve: 
HeatSolve: Starting Assembly...
HeatSolve: Assembly:
HeatSolve: Assembly done
       3 0.1752E-12
ComputeChange: NS (ITER=1) (NRM,RELC): (  300.45461     0.58439931E-03 ) :: heat equation
HeatSolve: iter:    1 Assembly: (s)    0.00    0.00
HeatSolve: iter:    1 Solve:    (s)    0.00    0.00
HeatSolve:  Result Norm   :    300.45460966802580
HeatSolve:  Relative Change :    5.8439931291308323E-004
HeatSolve: 
HeatSolve: 
HeatSolve: -------------------------------------
HeatSolve:  TEMPERATURE ITERATION           2
HeatSolve: -------------------------------------
HeatSolve: 
HeatSolve: Starting Assembly...
HeatSolve: Assembly:
HeatSolve: Assembly done
       1 0.3115E-15
ComputeChange: NS (ITER=2) (NRM,RELC): (  300.45461     0.13621779E-13 ) :: heat equation
HeatSolve: iter:    2 Assembly: (s)    0.00    0.01
HeatSolve: iter:    2 Solve:    (s)    0.00    0.00
HeatSolve:  Result Norm   :    300.45460966802989
HeatSolve:  Relative Change :    1.3621778552508241E-014
ComputeChange: SS (ITER=1) (NRM,RELC): (  300.45461     0.58439931E-03 ) :: heat equation
SolveEquations: -------------------------------------
SolveEquations:  Coupled system iteration:            2
SolveEquations: -------------------------------------
FlowSolve: 
FlowSolve: 
FlowSolve: -------------------------------------
FlowSolve:  NAVIER-STOKES ITERATION           1
FlowSolve: -------------------------------------
FlowSolve: 
FlowSolve: Starting Assembly...
FlowSolve: Assembly:
FlowSolve: Assembly done
FlowSolve: Dirichlet conditions done
      10 0.4760E-10
      10 0.4760E-10
ComputeChange: NS (ITER=1) (NRM,RELC): ( 0.67680873     0.23025004E-06 ) :: navier-stokes
FlowSolve: iter:    1 Assembly: (s)    0.01    0.01
FlowSolve: iter:    1 Solve:    (s)    0.00    0.00
FlowSolve:  Result Norm     :   0.67680873304640687
FlowSolve:  Relative Change :    2.3025004037932838E-007
FlowSolve: 
FlowSolve: 
FlowSolve: -------------------------------------
FlowSolve:  NAVIER-STOKES ITERATION           2
FlowSolve: -------------------------------------
FlowSolve: 
FlowSolve: Starting Assembly...
FlowSolve: Assembly:
FlowSolve: Assembly done
FlowSolve: Dirichlet conditions done
       9 0.3290E-10
ComputeChange: NS (ITER=2) (NRM,RELC): ( 0.67680875     0.24710971E-07 ) :: navier-stokes
FlowSolve: iter:    2 Assembly: (s)    0.01    0.02
FlowSolve: iter:    2 Solve:    (s)    0.00    0.00
FlowSolve:  Result Norm     :   0.67680874977100824
FlowSolve:  Relative Change :    2.4710971279221955E-008
ComputeChange: SS (ITER=2) (NRM,RELC): ( 0.67680875     0.25496101E-06 ) :: navier-stokes
HeatSolver: Solving the energy equation for temperature
HeatSolve: 
HeatSolve: 
HeatSolve: -------------------------------------
HeatSolve:  TEMPERATURE ITERATION           1
HeatSolve: -------------------------------------
HeatSolve: 
HeatSolve: Starting Assembly...
HeatSolve: Assembly:
HeatSolve: Assembly done
       1 0.6002E-11
ComputeChange: NS (ITER=1) (NRM,RELC): (  300.45461     0.32559551E-08 ) :: heat equation
HeatSolve: iter:    1 Assembly: (s)    0.00    0.00
HeatSolve: iter:    1 Solve:    (s)    0.00    0.00
HeatSolve:  Result Norm   :    300.45461064629660
HeatSolve:  Relative Change :    3.2559550727810777E-009
ComputeChange: SS (ITER=2) (NRM,RELC): (  300.45461     0.32559551E-08 ) :: heat equation
FluxSolver: -------------------------------------
FluxSolver: Computing the flux and/or gradient
FluxSolver: -------------------------------------
FluxSolver:  Assembly Time:    1.0068416595458984E-003
       7 0.3559E-10
       7 0.9865E-11
ComputeChange: NS (ITER=2) (NRM,RELC): (  700.43122     0.58488652E-01 ) :: flux compute
FluxSolver:  Solution Time:    4.3916702270507812E-004
FluxSolver:  Result Norm:    962.82563581599504
 Mesh dimension is:           2
CouplerSolver: Printing the data that is about to be written to Precice
CouplerSolver: Printing temperature
CouplerSolver: Node:     1 Index:     1 Value:   302.2540 X=       0.00 Y=       0.00
CouplerSolver: Node:     2 Index:    10 Value:   303.3451 X=       1.00 Y=       0.00
CouplerSolver: Node:    12 Index:     2 Value:   303.7695 X=       0.11 Y=       0.00
CouplerSolver: Node:    13 Index:     3 Value:   304.4248 X=       0.22 Y=       0.00
CouplerSolver: Node:    14 Index:     4 Value:   304.7325 X=       0.33 Y=       0.00
CouplerSolver: Node:    15 Index:     5 Value:   304.8596 X=       0.44 Y=       0.00
CouplerSolver: Node:    16 Index:     6 Value:   304.8990 X=       0.56 Y=       0.00
CouplerSolver: Node:    17 Index:     7 Value:   304.8758 X=       0.67 Y=       0.00
CouplerSolver: Node:    18 Index:     8 Value:   304.8006 X=       0.78 Y=       0.00
CouplerSolver: Node:    19 Index:     9 Value:   304.6558 X=       0.89 Y=       0.00
---[precice] [0m Time window completed
---[precice] [0m Mapping "Heat-Flux" for t=0.30000000000000004 from "Solid-Mesh" to "Fluid-Mesh"
---[precice] [0m iteration: 1, time-window: 3, time: 0.2 of 1, time-window-size: 0.1, max-time-step-size: 0.1, ongoing: yes, time-window-complete: yes, 
CouplerSolver: Ended
ResultOutputSolver: -------------------------------------
ResultOutputSolver: Saving in unstructured VTK XML (.vtu) format
ResultOutputSolver: -------------------------------------
MAIN: 
MAIN: -------------------------------------
MAIN: Time: 3/10:   3.000E-01
MAIN: -------------------------------------
MAIN: 
 Mesh dimension is:           2
 No reading iteration checkpoint required
CouplerSolver: Readinging the data from Precice
CouplerSolver: Printing the data that was read
CouplerSolver: Printing temperature flux 2
CouplerSolver: Node:     1 Index:     1 Value:  3672.3474 X=       0.00 Y=       0.00
CouplerSolver: Node:     2 Index:    10 Value:  4348.0000 X=       1.00 Y=       0.00
CouplerSolver: Node:    12 Index:     2 Value:  1997.6555 X=       0.11 Y=       0.00
CouplerSolver: Node:    13 Index:     3 Value:  2053.0095 X=       0.22 Y=       0.00
CouplerSolver: Node:    14 Index:     4 Value:  1988.5272 X=       0.33 Y=       0.00
CouplerSolver: Node:    15 Index:     5 Value:  1993.6587 X=       0.44 Y=       0.00
CouplerSolver: Node:    16 Index:     6 Value:  1997.6779 X=       0.56 Y=       0.00
CouplerSolver: Node:    17 Index:     7 Value:  2013.6583 X=       0.67 Y=       0.00
CouplerSolver: Node:    18 Index:     8 Value:  1909.7848 X=       0.78 Y=       0.00
CouplerSolver: Node:    19 Index:     9 Value:  2101.5223 X=       0.89 Y=       0.00
CouplerSolver: Ended
SolveEquations: -------------------------------------
SolveEquations:  Coupled system iteration:            1
SolveEquations: -------------------------------------
FlowSolve: 
FlowSolve: 
FlowSolve: -------------------------------------
FlowSolve:  NAVIER-STOKES ITERATION           1
FlowSolve: -------------------------------------
FlowSolve: 
FlowSolve: Starting Assembly...
FlowSolve: Assembly:
FlowSolve: Assembly done
FlowSolve: Dirichlet conditions done
      10 0.1467E-05
      13 0.8251E-10
ComputeChange: NS (ITER=1) (NRM,RELC): ( 0.73467420     0.81992416E-01 ) :: navier-stokes
FlowSolve: iter:    1 Assembly: (s)    0.01    0.01
FlowSolve: iter:    1 Solve:    (s)    0.00    0.00
FlowSolve:  Result Norm     :   0.73467419850305693
FlowSolve:  Relative Change :    8.1992416277937283E-002
FlowSolve: 
FlowSolve: 
FlowSolve: -------------------------------------
FlowSolve:  NAVIER-STOKES ITERATION           2
FlowSolve: -------------------------------------
FlowSolve: 
FlowSolve: Starting Assembly...
FlowSolve: Assembly:
FlowSolve: Assembly done
FlowSolve: Dirichlet conditions done
      10 0.6392E-07
      12 0.7064E-10
ComputeChange: NS (ITER=2) (NRM,RELC): ( 0.73469741     0.31589864E-04 ) :: navier-stokes
FlowSolve: iter:    2 Assembly: (s)    0.01    0.02
FlowSolve: iter:    2 Solve:    (s)    0.00    0.00
FlowSolve:  Result Norm     :   0.73469740712794152
FlowSolve:  Relative Change :    3.1589864395969087E-005
FlowSolve: 
FlowSolve: 
FlowSolve: -------------------------------------
FlowSolve:  NAVIER-STOKES ITERATION           3
FlowSolve: -------------------------------------
FlowSolve: 
FlowSolve: Starting Assembly...
FlowSolve: Assembly:
FlowSolve: Assembly done
FlowSolve: Dirichlet conditions done
      10 0.7468E-09
      11 0.1221E-10
ComputeChange: NS (ITER=3) (NRM,RELC): ( 0.73469932     0.25973078E-05 ) :: navier-stokes
FlowSolve: iter:    3 Assembly: (s)    0.01    0.03
FlowSolve: iter:    3 Solve:    (s)    0.00    0.01
FlowSolve:  Result Norm     :   0.73469931536570598
FlowSolve:  Relative Change :    2.5973077729904067E-006
FlowSolve: 
FlowSolve: 
FlowSolve: -------------------------------------
FlowSolve:  NAVIER-STOKES ITERATION           4
FlowSolve: -------------------------------------
FlowSolve: 
FlowSolve: Starting Assembly...
FlowSolve: Assembly:
FlowSolve: Assembly done
FlowSolve: Dirichlet conditions done
      10 0.1710E-10
      10 0.1710E-10
ComputeChange: NS (ITER=4) (NRM,RELC): ( 0.73469942     0.14362223E-06 ) :: navier-stokes
FlowSolve: iter:    4 Assembly: (s)    0.01    0.03
FlowSolve: iter:    4 Solve:    (s)    0.00    0.01
FlowSolve:  Result Norm     :   0.73469942088487017
FlowSolve:  Relative Change :    1.4362223347674769E-007
FlowSolve: 
FlowSolve: 
FlowSolve: -------------------------------------
FlowSolve:  NAVIER-STOKES ITERATION           5
FlowSolve: -------------------------------------
FlowSolve: 
FlowSolve: Starting Assembly...
FlowSolve: Assembly:
FlowSolve: Assembly done
FlowSolve: Dirichlet conditions done
       3 0.8819E-10
ComputeChange: NS (ITER=5) (NRM,RELC): ( 0.73469943     0.80202633E-08 ) :: navier-stokes
FlowSolve: iter:    5 Assembly: (s)    0.01    0.04
FlowSolve: iter:    5 Solve:    (s)    0.00    0.01
FlowSolve:  Result Norm     :   0.73469942677735300
FlowSolve:  Relative Change :    8.0202633129545976E-009
ComputeChange: SS (ITER=1) (NRM,RELC): ( 0.73469943     0.82026697E-01 ) :: navier-stokes
HeatSolver: Solving the energy equation for temperature
HeatSolve: 
HeatSolve: 
HeatSolve: -------------------------------------
HeatSolve:  TEMPERATURE ITERATION           1
HeatSolve: -------------------------------------
HeatSolve: 
HeatSolve: Starting Assembly...
HeatSolve: Assembly:
HeatSolve: Assembly done
       3 0.2819E-12
ComputeChange: NS (ITER=1) (NRM,RELC): (  300.58492     0.43361031E-03 ) :: heat equation
HeatSolve: iter:    1 Assembly: (s)    0.00    0.00
HeatSolve: iter:    1 Solve:    (s)    0.00    0.00
HeatSolve:  Result Norm   :    300.58491911360642
HeatSolve:  Relative Change :    4.3361030633666043E-004
HeatSolve: 
HeatSolve: 
HeatSolve: -------------------------------------
HeatSolve:  TEMPERATURE ITERATION           2
HeatSolve: -------------------------------------
HeatSolve: 
HeatSolve: Starting Assembly...
HeatSolve: Assembly:
HeatSolve: Assembly done
       1 0.4531E-15
ComputeChange: NS (ITER=2) (NRM,RELC): (  300.58492     0.24205997E-13 ) :: heat equation
HeatSolve: iter:    2 Assembly: (s)    0.00    0.01
HeatSolve: iter:    2 Solve:    (s)    0.00    0.00
HeatSolve:  Result Norm   :    300.58491911361369
HeatSolve:  Relative Change :    2.4205996879814791E-014
ComputeChange: SS (ITER=1) (NRM,RELC): (  300.58492     0.43361031E-03 ) :: heat equation
SolveEquations: -------------------------------------
SolveEquations:  Coupled system iteration:            2
SolveEquations: -------------------------------------
FlowSolve: 
FlowSolve: 
FlowSolve: -------------------------------------
FlowSolve:  NAVIER-STOKES ITERATION           1
FlowSolve: -------------------------------------
FlowSolve: 
FlowSolve: Starting Assembly...
FlowSolve: Assembly:
FlowSolve: Assembly done
FlowSolve: Dirichlet conditions done
      10 0.6191E-10
      10 0.6191E-10
ComputeChange: NS (ITER=1) (NRM,RELC): ( 0.73469937     0.73600702E-07 ) :: navier-stokes
FlowSolve: iter:    1 Assembly: (s)    0.01    0.01
FlowSolve: iter:    1 Solve:    (s)    0.00    0.00
FlowSolve:  Result Norm     :   0.73469937270296171
FlowSolve:  Relative Change :    7.3600701616380329E-008
ComputeChange: SS (ITER=2) (NRM,RELC): ( 0.73469937     0.73600702E-07 ) :: navier-stokes
HeatSolver: Solving the energy equation for temperature
HeatSolve: 
HeatSolve: 
HeatSolve: -------------------------------------
HeatSolve:  TEMPERATURE ITERATION           1
HeatSolve: -------------------------------------
HeatSolve: 
HeatSolve: Starting Assembly...
HeatSolve: Assembly:
HeatSolve: Assembly done
       1 0.6930E-11
ComputeChange: NS (ITER=1) (NRM,RELC): (  300.58492     0.25427590E-08 ) :: heat equation
HeatSolve: iter:    1 Assembly: (s)    0.00    0.00
HeatSolve: iter:    1 Solve:    (s)    0.00    0.00
HeatSolve:  Result Norm   :    300.58491987792871
HeatSolve:  Relative Change :    2.5427590301896341E-009
ComputeChange: SS (ITER=2) (NRM,RELC): (  300.58492     0.25427590E-08 ) :: heat equation
FluxSolver: -------------------------------------
FluxSolver: Computing the flux and/or gradient
FluxSolver: -------------------------------------
FluxSolver:  Assembly Time:    1.0321140289306641E-003
       7 0.2912E-10
       7 0.9175E-11
ComputeChange: NS (ITER=2) (NRM,RELC): (  638.62455     0.40488438     ) :: flux compute
FluxSolver:  Solution Time:    4.4798851013183594E-004
FluxSolver:  Result Norm:    1155.3676994739910
 Mesh dimension is:           2
CouplerSolver: Printing the data that is about to be written to Precice
CouplerSolver: Printing temperature
CouplerSolver: Node:     1 Index:     1 Value:   302.3444 X=       0.00 Y=       0.00
CouplerSolver: Node:     2 Index:    10 Value:   303.9994 X=       1.00 Y=       0.00
CouplerSolver: Node:    12 Index:     2 Value:   303.7612 X=       0.11 Y=       0.00
CouplerSolver: Node:    13 Index:     3 Value:   304.4350 X=       0.22 Y=       0.00
CouplerSolver: Node:    14 Index:     4 Value:   304.8359 X=       0.33 Y=       0.00
CouplerSolver: Node:    15 Index:     5 Value:   305.0566 X=       0.44 Y=       0.00
CouplerSolver: Node:    16 Index:     6 Value:   305.1629 X=       0.56 Y=       0.00
CouplerSolver: Node:    17 Index:     7 Value:   305.1841 X=       0.67 Y=       0.00
CouplerSolver: Node:    18 Index:     8 Value:   305.1382 X=       0.78 Y=       0.00
CouplerSolver: Node:    19 Index:     9 Value:   305.0696 X=       0.89 Y=       0.00
---[precice] [0m Time window completed
---[precice] [0m Mapping "Heat-Flux" for t=0.4 from "Solid-Mesh" to "Fluid-Mesh"
---[precice] [0m iteration: 1, time-window: 4, time: 0.3 of 1, time-window-size: 0.1, max-time-step-size: 0.1, ongoing: yes, time-window-complete: yes, 
CouplerSolver: Ended
ResultOutputSolver: -------------------------------------
ResultOutputSolver: Saving in unstructured VTK XML (.vtu) format
ResultOutputSolver: -------------------------------------
MAIN: 
MAIN: -------------------------------------
MAIN: Time: 4/10:   4.000E-01
MAIN: -------------------------------------
MAIN: 
 Mesh dimension is:           2
 No reading iteration checkpoint required
CouplerSolver: Readinging the data from Precice
CouplerSolver: Printing the data that was read
CouplerSolver: Printing temperature flux 2
CouplerSolver: Node:     1 Index:     1 Value:  3617.0475 X=       0.00 Y=       0.00
CouplerSolver: Node:     2 Index:    10 Value:  3780.0860 X=       1.00 Y=       0.00
CouplerSolver: Node:    12 Index:     2 Value:  2062.3321 X=       0.11 Y=       0.00
CouplerSolver: Node:    13 Index:     3 Value:  2067.7136 X=       0.22 Y=       0.00
CouplerSolver: Node:    14 Index:     4 Value:  1932.5889 X=       0.33 Y=       0.00
CouplerSolver: Node:    15 Index:     5 Value:  1892.8048 X=       0.44 Y=       0.00
CouplerSolver: Node:    16 Index:     6 Value:  1875.9256 X=       0.56 Y=       0.00
CouplerSolver: Node:    17 Index:     7 Value:  1888.3894 X=       0.67 Y=       0.00
CouplerSolver: Node:    18 Index:     8 Value:  1806.0908 X=       0.78 Y=       0.00
CouplerSolver: Node:    19 Index:     9 Value:  1917.4489 X=       0.89 Y=       0.00
CouplerSolver: Ended
SolveEquations: -------------------------------------
SolveEquations:  Coupled system iteration:            1
SolveEquations: -------------------------------------
FlowSolve: 
FlowSolve: 
FlowSolve: -------------------------------------
FlowSolve:  NAVIER-STOKES ITERATION           1
FlowSolve: -------------------------------------
FlowSolve: 
FlowSolve: Starting Assembly...
FlowSolve: Assembly:
FlowSolve: Assembly done
FlowSolve: Dirichlet conditions done
      10 0.3968E-04
      15 0.2078E-10
ComputeChange: NS (ITER=1) (NRM,RELC): ( 0.73754175     0.38612899E-02 ) :: navier-stokes
FlowSolve: iter:    1 Assembly: (s)    0.01    0.01
FlowSolve: iter:    1 Solve:    (s)    0.00    0.00
FlowSolve:  Result Norm     :   0.73754174757144186
FlowSolve:  Relative Change :    3.8612898788622091E-003
FlowSolve: 
FlowSolve: 
FlowSolve: -------------------------------------
FlowSolve:  NAVIER-STOKES ITERATION           2
FlowSolve: -------------------------------------
FlowSolve: 
FlowSolve: Starting Assembly...
FlowSolve: Assembly:
FlowSolve: Assembly done
FlowSolve: Dirichlet conditions done
      10 0.5929E-08
      12 0.1230E-10
ComputeChange: NS (ITER=2) (NRM,RELC): ( 0.73758269     0.55509415E-04 ) :: navier-stokes
FlowSolve: iter:    2 Assembly: (s)    0.01    0.02
FlowSolve: iter:    2 Solve:    (s)    0.00    0.00
FlowSolve:  Result Norm     :   0.73758268921880865
FlowSolve:  Relative Change :    5.5509415132290136E-005
FlowSolve: 
FlowSolve: 
FlowSolve: -------------------------------------
FlowSolve:  NAVIER-STOKES ITERATION           3
FlowSolve: -------------------------------------
FlowSolve: 
FlowSolve: Starting Assembly...
FlowSolve: Assembly:
FlowSolve: Assembly done
FlowSolve: Dirichlet conditions done
      10 0.1445E-09
      11 0.9766E-11
ComputeChange: NS (ITER=3) (NRM,RELC): ( 0.73758265     0.49851081E-07 ) :: navier-stokes
FlowSolve: iter:    3 Assembly: (s)    0.01    0.02
FlowSolve: iter:    3 Solve:    (s)    0.00    0.01
FlowSolve:  Result Norm     :   0.73758265244951504
FlowSolve:  Relative Change :    4.9851081192385981E-008
ComputeChange: SS (ITER=1) (NRM,RELC): ( 0.73758265     0.39167492E-02 ) :: navier-stokes
HeatSolver: Solving the energy equation for temperature
HeatSolve: 
HeatSolve: 
HeatSolve: -------------------------------------
HeatSolve:  TEMPERATURE ITERATION           1
HeatSolve: -------------------------------------
HeatSolve: 
HeatSolve: Starting Assembly...
HeatSolve: Assembly:
HeatSolve: Assembly done
       3 0.2589E-12
ComputeChange: NS (ITER=1) (NRM,RELC): (  300.70399     0.39603983E-03 ) :: heat equation
HeatSolve: iter:    1 Assembly: (s)    0.00    0.00
HeatSolve: iter:    1 Solve:    (s)    0.00    0.00
HeatSolve:  Result Norm   :    300.70398705588957
HeatSolve:  Relative Change :    3.9603982906660600E-004
HeatSolve: 
HeatSolve: 
HeatSolve: -------------------------------------
HeatSolve:  TEMPERATURE ITERATION           2
HeatSolve: -------------------------------------
HeatSolve: 
HeatSolve: Starting Assembly...
HeatSolve: Assembly:
HeatSolve: Assembly done
       1 0.4463E-15
ComputeChange: NS (ITER=2) (NRM,RELC): (  300.70399     0.21549930E-13 ) :: heat equation
HeatSolve: iter:    2 Assembly: (s)    0.00    0.01
HeatSolve: iter:    2 Solve:    (s)    0.00    0.00
HeatSolve:  Result Norm   :    300.70398705589605
HeatSolve:  Relative Change :    2.1549929595471667E-014
ComputeChange: SS (ITER=1) (NRM,RELC): (  300.70399     0.39603983E-03 ) :: heat equation
SolveEquations: -------------------------------------
SolveEquations:  Coupled system iteration:            2
SolveEquations: -------------------------------------
FlowSolve: 
FlowSolve: 
FlowSolve: -------------------------------------
FlowSolve:  NAVIER-STOKES ITERATION           1
FlowSolve: -------------------------------------
FlowSolve: 
FlowSolve: Starting Assembly...
FlowSolve: Assembly:
FlowSolve: Assembly done
FlowSolve: Dirichlet conditions done
      10 0.3435E-10
      10 0.3435E-10
ComputeChange: NS (ITER=1) (NRM,RELC): ( 0.73758261     0.62936483E-07 ) :: navier-stokes
FlowSolve: iter:    1 Assembly: (s)    0.01    0.01
FlowSolve: iter:    1 Solve:    (s)    0.00    0.00
FlowSolve:  Result Norm     :   0.73758260602865877
FlowSolve:  Relative Change :    6.2936482544247987E-008
ComputeChange: SS (ITER=2) (NRM,RELC): ( 0.73758261     0.62936483E-07 ) :: navier-stokes
HeatSolver: Solving the energy equation for temperature
HeatSolve: 
HeatSolve: 
HeatSolve: -------------------------------------
HeatSolve:  TEMPERATURE ITERATION           1
HeatSolve: -------------------------------------
HeatSolve: 
HeatSolve: Starting Assembly...
HeatSolve: Assembly:
HeatSolve: Assembly done
       1 0.4785E-11
ComputeChange: NS (ITER=1) (NRM,RELC): (  300.70399     0.10634924E-08 ) :: heat equation
HeatSolve: iter:    1 Assembly: (s)    0.00    0.00
HeatSolve: iter:    1 Solve:    (s)    0.00    0.00
HeatSolve:  Result Norm   :    300.70398737569246
HeatSolve:  Relative Change :    1.0634924275914698E-009
ComputeChange: SS (ITER=2) (NRM,RELC): (  300.70399     0.10634924E-08 ) :: heat equation
FluxSolver: -------------------------------------
FluxSolver: Computing the flux and/or gradient
FluxSolver: -------------------------------------
FluxSolver:  Assembly Time:    1.0311603546142578E-003
       7 0.2415E-10
       7 0.8989E-11
ComputeChange: NS (ITER=2) (NRM,RELC): (  606.09664     0.62365277     ) :: flux compute
FluxSolver:  Solution Time:    4.8279762268066406E-004
FluxSolver:  Result Norm:    1304.6944714935792
 Mesh dimension is:           2
CouplerSolver: Printing the data that is about to be written to Precice
CouplerSolver: Printing temperature
CouplerSolver: Node:     1 Index:     1 Value:   302.3611 X=       0.00 Y=       0.00
CouplerSolver: Node:     2 Index:    10 Value:   304.3665 X=       1.00 Y=       0.00
CouplerSolver: Node:    12 Index:     2 Value:   303.7480 X=       0.11 Y=       0.00
CouplerSolver: Node:    13 Index:     3 Value:   304.4117 X=       0.22 Y=       0.00
CouplerSolver: Node:    14 Index:     4 Value:   304.8400 X=       0.33 Y=       0.00
CouplerSolver: Node:    15 Index:     5 Value:   305.1167 X=       0.44 Y=       0.00
CouplerSolver: Node:    16 Index:     6 Value:   305.2849 X=       0.56 Y=       0.00
CouplerSolver: Node:    17 Index:     7 Value:   305.3627 X=       0.67 Y=       0.00
CouplerSolver: Node:    18 Index:     8 Value:   305.3585 X=       0.78 Y=       0.00
CouplerSolver: Node:    19 Index:     9 Value:   305.3056 X=       0.89 Y=       0.00
---[precice] [0m Time window completed
---[precice] [0m Mapping "Heat-Flux" for t=0.5 from "Solid-Mesh" to "Fluid-Mesh"
---[precice] [0m iteration: 1, time-window: 5, time: 0.4 of 1, time-window-size: 0.1, max-time-step-size: 0.1, ongoing: yes, time-window-complete: yes, 
CouplerSolver: Ended
ResultOutputSolver: -------------------------------------
ResultOutputSolver: Saving in unstructured VTK XML (.vtu) format
ResultOutputSolver: -------------------------------------
MAIN: 
MAIN: -------------------------------------
MAIN: Time: 5/10:   5.000E-01
MAIN: -------------------------------------
MAIN: 
 Mesh dimension is:           2
 No reading iteration checkpoint required
CouplerSolver: Readinging the data from Precice
CouplerSolver: Printing the data that was read
CouplerSolver: Printing temperature flux 2
CouplerSolver: Node:     1 Index:     1 Value:  3601.0825 X=       0.00 Y=       0.00
CouplerSolver: Node:     2 Index:    10 Value:  3463.1050 X=       1.00 Y=       0.00
CouplerSolver: Node:    12 Index:     2 Value:  2084.2285 X=       0.11 Y=       0.00
CouplerSolver: Node:    13 Index:     3 Value:  2094.7672 X=       0.22 Y=       0.00
CouplerSolver: Node:    14 Index:     4 Value:  1938.0465 X=       0.33 Y=       0.00
CouplerSolver: Node:    15 Index:     5 Value:  1863.4281 X=       0.44 Y=       0.00
CouplerSolver: Node:    16 Index:     6 Value:  1815.8418 X=       0.56 Y=       0.00
CouplerSolver: Node:    17 Index:     7 Value:  1801.8312 X=       0.67 Y=       0.00
CouplerSolver: Node:    18 Index:     8 Value:  1719.6067 X=       0.78 Y=       0.00
CouplerSolver: Node:    19 Index:     9 Value:  1825.6963 X=       0.89 Y=       0.00
CouplerSolver: Ended
SolveEquations: -------------------------------------
SolveEquations:  Coupled system iteration:            1
SolveEquations: -------------------------------------
FlowSolve: 
FlowSolve: 
FlowSolve: -------------------------------------
FlowSolve:  NAVIER-STOKES ITERATION           1
FlowSolve: -------------------------------------
FlowSolve: 
FlowSolve: Starting Assembly...
FlowSolve: Assembly:
FlowSolve: Assembly done
FlowSolve: Dirichlet conditions done
      10 0.9744E-07
      12 0.3070E-10
ComputeChange: NS (ITER=1) (NRM,RELC): ( 0.73160564     0.81364160E-02 ) :: navier-stokes
FlowSolve: iter:    1 Assembly: (s)    0.01    0.01
FlowSolve: iter:    1 Solve:    (s)    0.00    0.00
FlowSolve:  Result Norm     :   0.73160564261900740
FlowSolve:  Relative Change :    8.1364160313056478E-003
FlowSolve: 
FlowSolve: 
FlowSolve: -------------------------------------
FlowSolve:  NAVIER-STOKES ITERATION           2
FlowSolve: -------------------------------------
FlowSolve: 
FlowSolve: Starting Assembly...
FlowSolve: Assembly:
FlowSolve: Assembly done
FlowSolve: Dirichlet conditions done
      10 0.4024E-07
      12 0.4388E-12
ComputeChange: NS (ITER=2) (NRM,RELC): ( 0.73161405     0.11496305E-04 ) :: navier-stokes
FlowSolve: iter:    2 Assembly: (s)    0.01    0.02
FlowSolve: iter:    2 Solve:    (s)    0.00    0.00
FlowSolve:  Result Norm     :   0.73161405342907471
FlowSolve:  Relative Change :    1.1496305155024211E-005
FlowSolve: 
FlowSolve: 
FlowSolve: -------------------------------------
FlowSolve:  NAVIER-STOKES ITERATION           3
FlowSolve: -------------------------------------
FlowSolve: 
FlowSolve: Starting Assembly...
FlowSolve: Assembly:
FlowSolve: Assembly done
FlowSolve: Dirichlet conditions done
      10 0.1351E-09
      11 0.8248E-12
ComputeChange: NS (ITER=3) (NRM,RELC): ( 0.73161401     0.58358102E-07 ) :: navier-stokes
FlowSolve: iter:    3 Assembly: (s)    0.01    0.02
FlowSolve: iter:    3 Solve:    (s)    0.00    0.01
FlowSolve:  Result Norm     :   0.73161401073346832
FlowSolve:  Relative Change :    5.8358102102338658E-008
ComputeChange: SS (ITER=1) (NRM,RELC): ( 0.73161401     0.81249783E-02 ) :: navier-stokes
HeatSolver: Solving the energy equation for temperature
HeatSolve: 
HeatSolve: 
HeatSolve: -------------------------------------
HeatSolve:  TEMPERATURE ITERATION           1
HeatSolve: -------------------------------------
HeatSolve: 
HeatSolve: Starting Assembly...
HeatSolve: Assembly:
HeatSolve: Assembly done
       3 0.2267E-12
ComputeChange: NS (ITER=1) (NRM,RELC): (  300.82005     0.38588257E-03 ) :: heat equation
HeatSolve: iter:    1 Assembly: (s)    0.00    0.00
HeatSolve: iter:    1 Solve:    (s)    0.00    0.00
HeatSolve:  Result Norm   :    300.82004619448139
HeatSolve:  Relative Change :    3.8588256598857723E-004
HeatSolve: 
HeatSolve: 
HeatSolve: -------------------------------------
HeatSolve:  TEMPERATURE ITERATION           2
HeatSolve: -------------------------------------
HeatSolve: 
HeatSolve: Starting Assembly...
HeatSolve: Assembly:
HeatSolve: Assembly done
       1 0.3645E-15
ComputeChange: NS (ITER=2) (NRM,RELC): (  300.82005     0.17762385E-13 ) :: heat equation
HeatSolve: iter:    2 Assembly: (s)    0.00    0.01
HeatSolve: iter:    2 Solve:    (s)    0.00    0.00
HeatSolve:  Result Norm   :    300.82004619448674
HeatSolve:  Relative Change :    1.7762384656577882E-014
ComputeChange: SS (ITER=1) (NRM,RELC): (  300.82005     0.38588257E-03 ) :: heat equation
SolveEquations: -------------------------------------
SolveEquations:  Coupled system iteration:            2
SolveEquations: -------------------------------------
FlowSolve: 
FlowSolve: 
FlowSolve: -------------------------------------
FlowSolve:  NAVIER-STOKES ITERATION           1
FlowSolve: -------------------------------------
FlowSolve: 
FlowSolve: Starting Assembly...
FlowSolve: Assembly:
FlowSolve: Assembly done
FlowSolve: Dirichlet conditions done
      10 0.6392E-11
      10 0.6392E-11
ComputeChange: NS (ITER=1) (NRM,RELC): ( 0.73161396     0.74426063E-07 ) :: navier-stokes
FlowSolve: iter:    1 Assembly: (s)    0.01    0.01
FlowSolve: iter:    1 Solve:    (s)    0.00    0.00
FlowSolve:  Result Norm     :   0.73161395628231962
FlowSolve:  Relative Change :    7.4426063372905538E-008
ComputeChange: SS (ITER=2) (NRM,RELC): ( 0.73161396     0.74426063E-07 ) :: navier-stokes
HeatSolver: Solving the energy equation for temperature
HeatSolve: 
HeatSolve: 
HeatSolve: -------------------------------------
HeatSolve:  TEMPERATURE ITERATION           1
HeatSolve: -------------------------------------
HeatSolve: 
HeatSolve: Starting Assembly...
HeatSolve: Assembly:
HeatSolve: Assembly done
       1 0.3498E-11
ComputeChange: NS (ITER=1) (NRM,RELC): (  300.82005     0.31521770E-09 ) :: heat equation
HeatSolve: iter:    1 Assembly: (s)    0.00    0.00
HeatSolve: iter:    1 Solve:    (s)    0.00    0.00
HeatSolve:  Result Norm   :    300.82004628931054
HeatSolve:  Relative Change :    3.1521770275826980E-010
ComputeChange: SS (ITER=2) (NRM,RELC): (  300.82005     0.31521770E-09 ) :: heat equation
FluxSolver: -------------------------------------
FluxSolver: Computing the flux and/or gradient
FluxSolver: -------------------------------------
FluxSolver:  Assembly Time:    1.0402202606201172E-003
       7 0.2215E-10
       7 0.8991E-11
ComputeChange: NS (ITER=2) (NRM,RELC): (  591.43524     0.75233169     ) :: flux compute
FluxSolver:  Solution Time:    4.8685073852539062E-004
FluxSolver:  Result Norm:    1432.4885006040331
 Mesh dimension is:           2
CouplerSolver: Printing the data that is about to be written to Precice
CouplerSolver: Printing temperature
CouplerSolver: Node:     1 Index:     1 Value:   302.3896 X=       0.00 Y=       0.00
CouplerSolver: Node:     2 Index:    10 Value:   304.6383 X=       1.00 Y=       0.00
CouplerSolver: Node:    12 Index:     2 Value:   303.7629 X=       0.11 Y=       0.00
CouplerSolver: Node:    13 Index:     3 Value:   304.4213 X=       0.22 Y=       0.00
CouplerSolver: Node:    14 Index:     4 Value:   304.8609 X=       0.33 Y=       0.00
CouplerSolver: Node:    15 Index:     5 Value:   305.1663 X=       0.44 Y=       0.00
CouplerSolver: Node:    16 Index:     6 Value:   305.3745 X=       0.56 Y=       0.00
CouplerSolver: Node:    17 Index:     7 Value:   305.4953 X=       0.67 Y=       0.00
CouplerSolver: Node:    18 Index:     8 Value:   305.5312 X=       0.78 Y=       0.00
CouplerSolver: Node:    19 Index:     9 Value:   305.5002 X=       0.89 Y=       0.00
---[precice] [0m Time window completed
---[precice] [0m Mapping "Heat-Flux" for t=0.6000000000000001 from "Solid-Mesh" to "Fluid-Mesh"
---[precice] [0m iteration: 1, time-window: 6, time: 0.5 of 1, time-window-size: 0.1, max-time-step-size: 0.1, ongoing: yes, time-window-complete: yes, 
CouplerSolver: Ended
ResultOutputSolver: -------------------------------------
ResultOutputSolver: Saving in unstructured VTK XML (.vtu) format
ResultOutputSolver: -------------------------------------
MAIN: 
MAIN: -------------------------------------
MAIN: Time: 6/10:   6.000E-01
MAIN: -------------------------------------
MAIN: 
 Mesh dimension is:           2
 No reading iteration checkpoint required
CouplerSolver: Readinging the data from Precice
CouplerSolver: Printing the data that was read
CouplerSolver: Printing temperature flux 2
CouplerSolver: Node:     1 Index:     1 Value:  3585.3644 X=       0.00 Y=       0.00
CouplerSolver: Node:     2 Index:    10 Value:  3254.5983 X=       1.00 Y=       0.00
CouplerSolver: Node:    12 Index:     2 Value:  2085.7004 X=       0.11 Y=       0.00
CouplerSolver: Node:    13 Index:     3 Value:  2099.9757 X=       0.22 Y=       0.00
CouplerSolver: Node:    14 Index:     4 Value:  1936.0927 X=       0.33 Y=       0.00
CouplerSolver: Node:    15 Index:     5 Value:  1844.5296 X=       0.44 Y=       0.00
CouplerSolver: Node:    16 Index:     6 Value:  1775.9154 X=       0.56 Y=       0.00
CouplerSolver: Node:    17 Index:     7 Value:  1740.0008 X=       0.67 Y=       0.00
CouplerSolver: Node:    18 Index:     8 Value:  1646.6021 X=       0.78 Y=       0.00
CouplerSolver: Node:    19 Index:     9 Value:  1743.3068 X=       0.89 Y=       0.00
CouplerSolver: Ended
SolveEquations: -------------------------------------
SolveEquations:  Coupled system iteration:            1
SolveEquations: -------------------------------------
FlowSolve: 
FlowSolve: 
FlowSolve: -------------------------------------
FlowSolve:  NAVIER-STOKES ITERATION           1
FlowSolve: -------------------------------------
FlowSolve: 
FlowSolve: Starting Assembly...
FlowSolve: Assembly:
FlowSolve: Assembly done
FlowSolve: Dirichlet conditions done
      10 0.8842E-07
      13 0.2933E-11
ComputeChange: NS (ITER=1) (NRM,RELC): ( 0.72808888     0.48298525E-02 ) :: navier-stokes
FlowSolve: iter:    1 Assembly: (s)    0.01    0.01
FlowSolve: iter:    1 Solve:    (s)    0.00    0.00
FlowSolve:  Result Norm     :   0.72808888160893825
FlowSolve:  Relative Change :    4.8298524629489994E-003
FlowSolve: 
FlowSolve: 
FlowSolve: -------------------------------------
FlowSolve:  NAVIER-STOKES ITERATION           2
FlowSolve: -------------------------------------
FlowSolve: 
FlowSolve: Starting Assembly...
FlowSolve: Assembly:
FlowSolve: Assembly done
FlowSolve: Dirichlet conditions done
      10 0.1557E-07
      11 0.7794E-10
ComputeChange: NS (ITER=2) (NRM,RELC): ( 0.72805732     0.43347559E-04 ) :: navier-stokes
FlowSolve: iter:    2 Assembly: (s)    0.01    0.02
FlowSolve: iter:    2 Solve:    (s)    0.00    0.00
FlowSolve:  Result Norm     :   0.72805732141754032
FlowSolve:  Relative Change :    4.3347558551941905E-005
FlowSolve: 
FlowSolve: 
FlowSolve: -------------------------------------
FlowSolve:  NAVIER-STOKES ITERATION           3
FlowSolve: -------------------------------------
FlowSolve: 
FlowSolve: Starting Assembly...
FlowSolve: Assembly:
FlowSolve: Assembly done
FlowSolve: Dirichlet conditions done
      10 0.7171E-10
      10 0.7171E-10
ComputeChange: NS (ITER=3) (NRM,RELC): ( 0.72805708     0.32772924E-06 ) :: navier-stokes
FlowSolve: iter:    3 Assembly: (s)    0.01    0.02
FlowSolve: iter:    3 Solve:    (s)    0.00    0.01
FlowSolve:  Result Norm     :   0.72805708281190962
FlowSolve:  Relative Change :    3.2772923611625503E-007
FlowSolve: 
FlowSolve: 
FlowSolve: -------------------------------------
FlowSolve:  NAVIER-STOKES ITERATION           4
FlowSolve: -------------------------------------
FlowSolve: 
FlowSolve: Starting Assembly...
FlowSolve: Assembly:
FlowSolve: Assembly done
FlowSolve: Dirichlet conditions done
       5 0.8916E-10
ComputeChange: NS (ITER=4) (NRM,RELC): ( 0.72805707     0.16667085E-07 ) :: navier-stokes
FlowSolve: iter:    4 Assembly: (s)    0.01    0.03
FlowSolve: iter:    4 Solve:    (s)    0.00    0.01
FlowSolve:  Result Norm     :   0.72805707067732051
FlowSolve:  Relative Change :    1.6667084901598710E-008
ComputeChange: SS (ITER=1) (NRM,RELC): ( 0.72805707     0.48735442E-02 ) :: navier-stokes
HeatSolver: Solving the energy equation for temperature
HeatSolve: 
HeatSolve: 
HeatSolve: -------------------------------------
HeatSolve:  TEMPERATURE ITERATION           1
HeatSolve: -------------------------------------
HeatSolve: 
HeatSolve: Starting Assembly...
HeatSolve: Assembly:
HeatSolve: Assembly done
       3 0.2060E-12
ComputeChange: NS (ITER=1) (NRM,RELC): (  300.93409     0.37904059E-03 ) :: heat equation
HeatSolve: iter:    1 Assembly: (s)    0.00    0.00
HeatSolve: iter:    1 Solve:    (s)    0.00    0.00
HeatSolve:  Result Norm   :    300.93409091101051
HeatSolve:  Relative Change :    3.7904059033335721E-004
HeatSolve: 
HeatSolve: 
HeatSolve: -------------------------------------
HeatSolve:  TEMPERATURE ITERATION           2
HeatSolve: -------------------------------------
HeatSolve: 
HeatSolve: Starting Assembly...
HeatSolve: Assembly:
HeatSolve: Assembly done
       1 0.4156E-15
ComputeChange: NS (ITER=2) (NRM,RELC): (  300.93409     0.16244534E-13 ) :: heat equation
HeatSolve: iter:    2 Assembly: (s)    0.00    0.01
HeatSolve: iter:    2 Solve:    (s)    0.00    0.00
HeatSolve:  Result Norm   :    300.93409091101540
HeatSolve:  Relative Change :    1.6244533835400663E-014
ComputeChange: SS (ITER=1) (NRM,RELC): (  300.93409     0.37904059E-03 ) :: heat equation
SolveEquations: -------------------------------------
SolveEquations:  Coupled system iteration:            2
SolveEquations: -------------------------------------
FlowSolve: 
FlowSolve: 
FlowSolve: -------------------------------------
FlowSolve:  NAVIER-STOKES ITERATION           1
FlowSolve: -------------------------------------
FlowSolve: 
FlowSolve: Starting Assembly...
FlowSolve: Assembly:
FlowSolve: Assembly done
FlowSolve: Dirichlet conditions done
      10 0.3125E-10
      10 0.3125E-10
ComputeChange: NS (ITER=1) (NRM,RELC): ( 0.72805703     0.52358538E-07 ) :: navier-stokes
FlowSolve: iter:    1 Assembly: (s)    0.01    0.01
FlowSolve: iter:    1 Solve:    (s)    0.00    0.00
FlowSolve:  Result Norm     :   0.72805703255731768
FlowSolve:  Relative Change :    5.2358538024342427E-008
ComputeChange: SS (ITER=2) (NRM,RELC): ( 0.72805703     0.52358538E-07 ) :: navier-stokes
HeatSolver: Solving the energy equation for temperature
HeatSolve: 
HeatSolve: 
HeatSolve: -------------------------------------
HeatSolve:  TEMPERATURE ITERATION           1
HeatSolve: -------------------------------------
HeatSolve: 
HeatSolve: Starting Assembly...
HeatSolve: Assembly:
HeatSolve: Assembly done
       1 0.2798E-11
ComputeChange: NS (ITER=1) (NRM,RELC): (  300.93409     0.17861054E-10 ) :: heat equation
HeatSolve: iter:    1 Assembly: (s)    0.00    0.00
HeatSolve: iter:    1 Solve:    (s)    0.00    0.00
HeatSolve:  Result Norm   :    300.93409090564040
HeatSolve:  Relative Change :    1.7861053842110713E-011
ComputeChange: SS (ITER=2) (NRM,RELC): (  300.93409     0.17861054E-10 ) :: heat equation
FluxSolver: -------------------------------------
FluxSolver: Computing the flux and/or gradient
FluxSolver: -------------------------------------
FluxSolver:  Assembly Time:    1.0790824890136719E-003
       7 0.2123E-10
       7 0.9025E-11
ComputeChange: NS (ITER=2) (NRM,RELC): (  581.75022     0.84472438     ) :: flux compute
FluxSolver:  Solution Time:    4.9281120300292969E-004
FluxSolver:  Result Norm:    1546.1101596735505
 Mesh dimension is:           2
CouplerSolver: Printing the data that is about to be written to Precice
CouplerSolver: Printing temperature
CouplerSolver: Node:     1 Index:     1 Value:   302.4330 X=       0.00 Y=       0.00
CouplerSolver: Node:     2 Index:    10 Value:   304.8559 X=       1.00 Y=       0.00
CouplerSolver: Node:    12 Index:     2 Value:   303.7923 X=       0.11 Y=       0.00
CouplerSolver: Node:    13 Index:     3 Value:   304.4369 X=       0.22 Y=       0.00
CouplerSolver: Node:    14 Index:     4 Value:   304.8783 X=       0.33 Y=       0.00
CouplerSolver: Node:    15 Index:     5 Value:   305.2004 X=       0.44 Y=       0.00
CouplerSolver: Node:    16 Index:     6 Value:   305.4347 X=       0.56 Y=       0.00
CouplerSolver: Node:    17 Index:     7 Value:   305.5866 X=       0.67 Y=       0.00
CouplerSolver: Node:    18 Index:     8 Value:   305.6554 X=       0.78 Y=       0.00
CouplerSolver: Node:    19 Index:     9 Value:   305.6522 X=       0.89 Y=       0.00
---[precice] [0m Time window completed
---[precice] [0m Mapping "Heat-Flux" for t=0.7000000000000001 from "Solid-Mesh" to "Fluid-Mesh"
---[precice] [0m iteration: 1, time-window: 7, time: 0.6 of 1, time-window-size: 0.1, max-time-step-size: 0.1, ongoing: yes, time-window-complete: yes, 
CouplerSolver: Ended
ResultOutputSolver: -------------------------------------
ResultOutputSolver: Saving in unstructured VTK XML (.vtu) format
ResultOutputSolver: -------------------------------------
MAIN: 
MAIN: -------------------------------------
MAIN: Time: 7/10:   7.000E-01
MAIN: -------------------------------------
MAIN: 
 Mesh dimension is:           2
 No reading iteration checkpoint required
CouplerSolver: Readinging the data from Precice
CouplerSolver: Printing the data that was read
CouplerSolver: Printing temperature flux 2
CouplerSolver: Node:     1 Index:     1 Value:  3561.1594 X=       0.00 Y=       0.00
CouplerSolver: Node:     2 Index:    10 Value:  3083.4874 X=       1.00 Y=       0.00
CouplerSolver: Node:    12 Index:     2 Value:  2078.4671 X=       0.11 Y=       0.00
CouplerSolver: Node:    13 Index:     3 Value:  2102.9171 X=       0.22 Y=       0.00
CouplerSolver: Node:    14 Index:     4 Value:  1935.4471 X=       0.33 Y=       0.00
CouplerSolver: Node:    15 Index:     5 Value:  1833.2527 X=       0.44 Y=       0.00
CouplerSolver: Node:    16 Index:     6 Value:  1750.9243 X=       0.56 Y=       0.00
CouplerSolver: Node:    17 Index:     7 Value:  1699.6953 X=       0.67 Y=       0.00
CouplerSolver: Node:    18 Index:     8 Value:  1595.4961 X=       0.78 Y=       0.00
CouplerSolver: Node:    19 Index:     9 Value:  1674.2216 X=       0.89 Y=       0.00
CouplerSolver: Ended
SolveEquations: -------------------------------------
SolveEquations:  Coupled system iteration:            1
SolveEquations: -------------------------------------
FlowSolve: 
FlowSolve: 
FlowSolve: -------------------------------------
FlowSolve:  NAVIER-STOKES ITERATION           1
FlowSolve: -------------------------------------
FlowSolve: 
FlowSolve: Starting Assembly...
FlowSolve: Assembly:
FlowSolve: Assembly done
FlowSolve: Dirichlet conditions done
      10 0.2590E-06
      13 0.5902E-11
ComputeChange: NS (ITER=1) (NRM,RELC): ( 0.72695139     0.15197776E-02 ) :: navier-stokes
FlowSolve: iter:    1 Assembly: (s)    0.01    0.01
FlowSolve: iter:    1 Solve:    (s)    0.00    0.00
FlowSolve:  Result Norm     :   0.72695138793070735
FlowSolve:  Relative Change :    1.5197776329562286E-003
FlowSolve: 
FlowSolve: 
FlowSolve: -------------------------------------
FlowSolve:  NAVIER-STOKES ITERATION           2
FlowSolve: -------------------------------------
FlowSolve: 
FlowSolve: Starting Assembly...
FlowSolve: Assembly:
FlowSolve: Assembly done
FlowSolve: Dirichlet conditions done
      10 0.1623E-07
      11 0.7038E-10
ComputeChange: NS (ITER=2) (NRM,RELC): ( 0.72691299     0.52824136E-04 ) :: navier-stokes
FlowSolve: iter:    2 Assembly: (s)    0.01    0.02
FlowSolve: iter:    2 Solve:    (s)    0.00    0.00
FlowSolve:  Result Norm     :   0.72691298836564067
FlowSolve:  Relative Change :    5.2824136408794214E-005
FlowSolve: 
FlowSolve: 
FlowSolve: -------------------------------------
FlowSolve:  NAVIER-STOKES ITERATION           3
FlowSolve: -------------------------------------
FlowSolve: 
FlowSolve: Starting Assembly...
FlowSolve: Assembly:
FlowSolve: Assembly done
FlowSolve: Dirichlet conditions done
      10 0.1466E-10
      10 0.1466E-10
ComputeChange: NS (ITER=3) (NRM,RELC): ( 0.72691270     0.39619113E-06 ) :: navier-stokes
FlowSolve: iter:    3 Assembly: (s)    0.01    0.02
FlowSolve: iter:    3 Solve:    (s)    0.00    0.01
FlowSolve:  Result Norm     :   0.72691270036922040
FlowSolve:  Relative Change :    3.9619112868744523E-007
FlowSolve: 
FlowSolve: 
FlowSolve: -------------------------------------
FlowSolve:  NAVIER-STOKES ITERATION           4
FlowSolve: -------------------------------------
FlowSolve: 
FlowSolve: Starting Assembly...
FlowSolve: Assembly:
FlowSolve: Assembly done
FlowSolve: Dirichlet conditions done
       5 0.9779E-10
ComputeChange: NS (ITER=4) (NRM,RELC): ( 0.72691269     0.96618097E-08 ) :: navier-stokes
FlowSolve: iter:    4 Assembly: (s)    0.01    0.03
FlowSolve: iter:    4 Solve:    (s)    0.00    0.01
FlowSolve:  Result Norm     :   0.72691269334592823
FlowSolve:  Relative Change :    9.6618097337167615E-009
ComputeChange: SS (ITER=1) (NRM,RELC): ( 0.72691269     0.15730076E-02 ) :: navier-stokes
HeatSolver: Solving the energy equation for temperature
HeatSolve: 
HeatSolve: 
HeatSolve: -------------------------------------
HeatSolve:  TEMPERATURE ITERATION           1
HeatSolve: -------------------------------------
HeatSolve: 
HeatSolve: Starting Assembly...
HeatSolve: Assembly:
HeatSolve: Assembly done
       3 0.1926E-12
ComputeChange: NS (ITER=1) (NRM,RELC): (  301.04636     0.37301297E-03 ) :: heat equation
HeatSolve: iter:    1 Assembly: (s)    0.00    0.00
HeatSolve: iter:    1 Solve:    (s)    0.00    0.00
HeatSolve:  Result Norm   :    301.04636416386739
HeatSolve:  Relative Change :    3.7301296838292933E-004
HeatSolve: 
HeatSolve: 
HeatSolve: -------------------------------------
HeatSolve:  TEMPERATURE ITERATION           2
HeatSolve: -------------------------------------
HeatSolve: 
HeatSolve: Starting Assembly...
HeatSolve: Assembly:
HeatSolve: Assembly done
       1 0.3786E-15
ComputeChange: NS (ITER=2) (NRM,RELC): (  301.04636     0.16049656E-13 ) :: heat equation
HeatSolve: iter:    2 Assembly: (s)    0.00    0.01
HeatSolve: iter:    2 Solve:    (s)    0.00    0.00
HeatSolve:  Result Norm   :    301.04636416387223
HeatSolve:  Relative Change :    1.6049656060747594E-014
ComputeChange: SS (ITER=1) (NRM,RELC): (  301.04636     0.37301297E-03 ) :: heat equation
SolveEquations: -------------------------------------
SolveEquations:  Coupled system iteration:            2
SolveEquations: -------------------------------------
FlowSolve: 
FlowSolve: 
FlowSolve: -------------------------------------
FlowSolve:  NAVIER-STOKES ITERATION           1
FlowSolve: -------------------------------------
FlowSolve: 
FlowSolve: Starting Assembly...
FlowSolve: Assembly:
FlowSolve: Assembly done
FlowSolve: Dirichlet conditions done
      10 0.8656E-11
      10 0.8656E-11
ComputeChange: NS (ITER=1) (NRM,RELC): ( 0.72691265     0.53244471E-07 ) :: navier-stokes
FlowSolve: iter:    1 Assembly: (s)    0.01    0.01
FlowSolve: iter:    1 Solve:    (s)    0.00    0.00
FlowSolve:  Result Norm     :   0.72691265464184762
FlowSolve:  Relative Change :    5.3244470748432748E-008
ComputeChange: SS (ITER=2) (NRM,RELC): ( 0.72691265     0.53244471E-07 ) :: navier-stokes
HeatSolver: Solving the energy equation for temperature
HeatSolve: 
HeatSolve: 
HeatSolve: -------------------------------------
HeatSolve:  TEMPERATURE ITERATION           1
HeatSolve: -------------------------------------
HeatSolve: 
HeatSolve: Starting Assembly...
HeatSolve: Assembly:
HeatSolve: Assembly done
       1 0.2385E-11
ComputeChange: NS (ITER=1) (NRM,RELC): (  301.04636     0.17024456E-09 ) :: heat equation
HeatSolve: iter:    1 Assembly: (s)    0.00    0.00
HeatSolve: iter:    1 Solve:    (s)    0.00    0.00
HeatSolve:  Result Norm   :    301.04636411262072
HeatSolve:  Relative Change :    1.7024455525481510E-010
ComputeChange: SS (ITER=2) (NRM,RELC): (  301.04636     0.17024456E-09 ) :: heat equation
FluxSolver: -------------------------------------
FluxSolver: Computing the flux and/or gradient
FluxSolver: -------------------------------------
FluxSolver:  Assembly Time:    1.0349750518798828E-003
       7 0.2062E-10
       7 0.9049E-11
ComputeChange: NS (ITER=2) (NRM,RELC): (  574.06827     0.91694347     ) :: flux compute
FluxSolver:  Solution Time:    4.4822692871093750E-004
FluxSolver:  Result Norm:    1649.2455873679853
 Mesh dimension is:           2
CouplerSolver: Printing the data that is about to be written to Precice
CouplerSolver: Printing temperature
CouplerSolver: Node:     1 Index:     1 Value:   302.4833 X=       0.00 Y=       0.00
CouplerSolver: Node:     2 Index:    10 Value:   305.0266 X=       1.00 Y=       0.00
CouplerSolver: Node:    12 Index:     2 Value:   303.8342 X=       0.11 Y=       0.00
CouplerSolver: Node:    13 Index:     3 Value:   304.4597 X=       0.22 Y=       0.00
CouplerSolver: Node:    14 Index:     4 Value:   304.8905 X=       0.33 Y=       0.00
CouplerSolver: Node:    15 Index:     5 Value:   305.2181 X=       0.44 Y=       0.00
CouplerSolver: Node:    16 Index:     6 Value:   305.4703 X=       0.56 Y=       0.00
CouplerSolver: Node:    17 Index:     7 Value:   305.6465 X=       0.67 Y=       0.00
CouplerSolver: Node:    18 Index:     8 Value:   305.7421 X=       0.78 Y=       0.00
CouplerSolver: Node:    19 Index:     9 Value:   305.7637 X=       0.89 Y=       0.00
---[precice] [0m Time window completed
---[precice] [0m Mapping "Heat-Flux" for t=0.8 from "Solid-Mesh" to "Fluid-Mesh"
---[precice] [0m iteration: 1, time-window: 8, time: 0.7 of 1, time-window-size: 0.1, max-time-step-size: 0.1, ongoing: yes, time-window-complete: yes, 
CouplerSolver: Ended
ResultOutputSolver: -------------------------------------
ResultOutputSolver: Saving in unstructured VTK XML (.vtu) format
ResultOutputSolver: -------------------------------------
MAIN: 
MAIN: -------------------------------------
MAIN: Time: 8/10:   8.000E-01
MAIN: -------------------------------------
MAIN: 
 Mesh dimension is:           2
 No reading iteration checkpoint required
CouplerSolver: Readinging the data from Precice
CouplerSolver: Printing the data that was read
CouplerSolver: Printing temperature flux 2
CouplerSolver: Node:     1 Index:     1 Value:  3534.0864 X=       0.00 Y=       0.00
CouplerSolver: Node:     2 Index:    10 Value:  2939.6541 X=       1.00 Y=       0.00
CouplerSolver: Node:    12 Index:     2 Value:  2060.9031 X=       0.11 Y=       0.00
CouplerSolver: Node:    13 Index:     3 Value:  2101.6822 X=       0.22 Y=       0.00
CouplerSolver: Node:    14 Index:     4 Value:  1939.1938 X=       0.33 Y=       0.00
CouplerSolver: Node:    15 Index:     5 Value:  1830.7591 X=       0.44 Y=       0.00
CouplerSolver: Node:    16 Index:     6 Value:  1737.3753 X=       0.56 Y=       0.00
CouplerSolver: Node:    17 Index:     7 Value:  1673.5868 X=       0.67 Y=       0.00
CouplerSolver: Node:    18 Index:     8 Value:  1560.9003 X=       0.78 Y=       0.00
CouplerSolver: Node:    19 Index:     9 Value:  1622.2459 X=       0.89 Y=       0.00
CouplerSolver: Ended
SolveEquations: -------------------------------------
SolveEquations:  Coupled system iteration:            1
SolveEquations: -------------------------------------
FlowSolve: 
FlowSolve: 
FlowSolve: -------------------------------------
FlowSolve:  NAVIER-STOKES ITERATION           1
FlowSolve: -------------------------------------
FlowSolve: 
FlowSolve: Starting Assembly...
FlowSolve: Assembly:
FlowSolve: Assembly done
FlowSolve: Dirichlet conditions done
      10 0.4948E-08
      13 0.4415E-11
ComputeChange: NS (ITER=1) (NRM,RELC): ( 0.72680640     0.14618439E-03 ) :: navier-stokes
FlowSolve: iter:    1 Assembly: (s)    0.01    0.01
FlowSolve: iter:    1 Solve:    (s)    0.00    0.00
FlowSolve:  Result Norm     :   0.72680639912577538
FlowSolve:  Relative Change :    1.4618438933830606E-004
FlowSolve: 
FlowSolve: 
FlowSolve: -------------------------------------
FlowSolve:  NAVIER-STOKES ITERATION           2
FlowSolve: -------------------------------------
FlowSolve: 
FlowSolve: Starting Assembly...
FlowSolve: Assembly:
FlowSolve: Assembly done
FlowSolve: Dirichlet conditions done
      10 0.3631E-08
      12 0.4508E-11
ComputeChange: NS (ITER=2) (NRM,RELC): ( 0.72676810     0.52700062E-04 ) :: navier-stokes
FlowSolve: iter:    2 Assembly: (s)    0.01    0.02
FlowSolve: iter:    2 Solve:    (s)    0.00    0.00
FlowSolve:  Result Norm     :   0.72676809739254966
FlowSolve:  Relative Change :    5.2700062249940364E-005
FlowSolve: 
FlowSolve: 
FlowSolve: -------------------------------------
FlowSolve:  NAVIER-STOKES ITERATION           3
FlowSolve: -------------------------------------
FlowSolve: 
FlowSolve: Starting Assembly...
FlowSolve: Assembly:
FlowSolve: Assembly done
FlowSolve: Dirichlet conditions done
      10 0.3876E-10
      10 0.3876E-10
ComputeChange: NS (ITER=3) (NRM,RELC): ( 0.72676790     0.27101640E-06 ) :: navier-stokes
FlowSolve: iter:    3 Assembly: (s)    0.01    0.03
FlowSolve: iter:    3 Solve:    (s)    0.00    0.01
FlowSolve:  Result Norm     :   0.72676790042650596
FlowSolve:  Relative Change :    2.7101639586894304E-007
FlowSolve: 
FlowSolve: 
FlowSolve: -------------------------------------
FlowSolve:  NAVIER-STOKES ITERATION           4
FlowSolve: -------------------------------------
FlowSolve: 
FlowSolve: Starting Assembly...
FlowSolve: Assembly:
FlowSolve: Assembly done
FlowSolve: Dirichlet conditions done
       6 0.7734E-10
ComputeChange: NS (ITER=4) (NRM,RELC): ( 0.72676790     0.32493594E-08 ) :: navier-stokes
[...]
HeatSolver: Solving the energy equation for temperature
HeatSolve: 
HeatSolve: 
HeatSolve: -------------------------------------
HeatSolve:  TEMPERATURE ITERATION           1
HeatSolve: -------------------------------------
HeatSolve: 
HeatSolve: Starting Assembly...
HeatSolve: Assembly:
HeatSolve: Assembly done
       1 0.2142E-11
ComputeChange: NS (ITER=1) (NRM,RELC): (  301.15721     0.24167794E-09 ) :: heat equation
HeatSolve: iter:    1 Assembly: (s)    0.00    0.00
HeatSolve: iter:    1 Solve:    (s)    0.00    0.00
HeatSolve:  Result Norm   :    301.15720580457969
HeatSolve:  Relative Change :    2.4167793784173147E-010
ComputeChange: SS (ITER=2) (NRM,RELC): (  301.15721     0.24167794E-09 ) :: heat equation
FluxSolver: -------------------------------------
FluxSolver: Computing the flux and/or gradient
FluxSolver: -------------------------------------
FluxSolver:  Assembly Time:    1.0299682617187500E-003
       7 0.2015E-10
       7 0.9060E-11
ComputeChange: NS (ITER=2) (NRM,RELC): (  568.15825     0.97509287     ) :: flux compute
FluxSolver:  Solution Time:    4.4798851013183594E-004
FluxSolver:  Result Norm:    1744.3665908413977
 Mesh dimension is:           2
CouplerSolver: Printing the data that is about to be written to Precice
CouplerSolver: Printing temperature
CouplerSolver: Node:     1 Index:     1 Value:   302.5321 X=       0.00 Y=       0.00
CouplerSolver: Node:     2 Index:    10 Value:   305.1583 X=       1.00 Y=       0.00
CouplerSolver: Node:    12 Index:     2 Value:   303.8836 X=       0.11 Y=       0.00
CouplerSolver: Node:    13 Index:     3 Value:   304.4952 X=       0.22 Y=       0.00
CouplerSolver: Node:    14 Index:     4 Value:   304.9081 X=       0.33 Y=       0.00
CouplerSolver: Node:    15 Index:     5 Value:   305.2290 X=       0.44 Y=       0.00
CouplerSolver: Node:    16 Index:     6 Value:   305.4893 X=       0.56 Y=       0.00
CouplerSolver: Node:    17 Index:     7 Value:   305.6835 X=       0.67 Y=       0.00
CouplerSolver: Node:    18 Index:     8 Value:   305.8014 X=       0.78 Y=       0.00
CouplerSolver: Node:    19 Index:     9 Value:   305.8442 X=       0.89 Y=       0.00
---[precice] [0m Time window completed
---[precice] [0m Mapping "Heat-Flux" for t=0.9 from "Solid-Mesh" to "Fluid-Mesh"
---[precice] [0m iteration: 1, time-window: 9, time: 0.8 of 1, time-window-size: 0.1, max-time-step-size: 0.1, ongoing: yes, time-window-complete: yes, 
CouplerSolver: Ended
ResultOutputSolver: -------------------------------------
ResultOutputSolver: Saving in unstructured VTK XML (.vtu) format
ResultOutputSolver: -------------------------------------
MAIN: 
MAIN: -------------------------------------
MAIN: Time: 9/10:   9.000E-01
MAIN: -------------------------------------
MAIN: 
 Mesh dimension is:           2
 No reading iteration checkpoint required
CouplerSolver: Readinging the data from Precice
CouplerSolver: Printing the data that was read
CouplerSolver: Printing temperature flux 2
CouplerSolver: Node:     1 Index:     1 Value:  3510.9545 X=       0.00 Y=       0.00
CouplerSolver: Node:     2 Index:    10 Value:  2821.4241 X=       1.00 Y=       0.00
CouplerSolver: Node:    12 Index:     2 Value:  2035.9067 X=       0.11 Y=       0.00
CouplerSolver: Node:    13 Index:     3 Value:  2090.1697 X=       0.22 Y=       0.00
CouplerSolver: Node:    14 Index:     4 Value:  1940.5544 X=       0.33 Y=       0.00
CouplerSolver: Node:    15 Index:     5 Value:  1833.7751 X=       0.44 Y=       0.00
CouplerSolver: Node:    16 Index:     6 Value:  1733.0348 X=       0.56 Y=       0.00
CouplerSolver: Node:    17 Index:     7 Value:  1658.0771 X=       0.67 Y=       0.00
CouplerSolver: Node:    18 Index:     8 Value:  1537.6083 X=       0.78 Y=       0.00
CouplerSolver: Node:    19 Index:     9 Value:  1583.9302 X=       0.89 Y=       0.00
CouplerSolver: Ended
SolveEquations: -------------------------------------
SolveEquations:  Coupled system iteration:            1
SolveEquations: -------------------------------------
FlowSolve: 
FlowSolve: 
FlowSolve: -------------------------------------
FlowSolve:  NAVIER-STOKES ITERATION           1
FlowSolve: -------------------------------------
FlowSolve: 
FlowSolve: Starting Assembly...
FlowSolve: Assembly:
FlowSolve: Assembly done
FlowSolve: Dirichlet conditions done
      10 0.2157E-07
      13 0.1673E-11
ComputeChange: NS (ITER=1) (NRM,RELC): ( 0.72692212     0.21223408E-03 ) :: navier-stokes
FlowSolve: iter:    1 Assembly: (s)    0.01    0.01
FlowSolve: iter:    1 Solve:    (s)    0.00    0.00
FlowSolve:  Result Norm     :   0.72692211948824548
FlowSolve:  Relative Change :    2.1223407890833289E-004
FlowSolve: 
FlowSolve: 
FlowSolve: -------------------------------------
FlowSolve:  NAVIER-STOKES ITERATION           2
FlowSolve: -------------------------------------
FlowSolve: 
FlowSolve: Starting Assembly...
FlowSolve: Assembly:
FlowSolve: Assembly done
FlowSolve: Dirichlet conditions done
      10 0.7951E-09
      11 0.7762E-11
ComputeChange: NS (ITER=2) (NRM,RELC): ( 0.72688540     0.50519343E-04 ) :: navier-stokes
FlowSolve: iter:    2 Assembly: (s)    0.01    0.02
FlowSolve: iter:    2 Solve:    (s)    0.00    0.00
FlowSolve:  Result Norm     :   0.72688539678826958
FlowSolve:  Relative Change :    5.0519342574254414E-005
FlowSolve: 
FlowSolve: 
FlowSolve: -------------------------------------
FlowSolve:  NAVIER-STOKES ITERATION           3
FlowSolve: -------------------------------------
FlowSolve: 
FlowSolve: Starting Assembly...
FlowSolve: Assembly:
FlowSolve: Assembly done
FlowSolve: Dirichlet conditions done
      10 0.5773E-09
      11 0.2968E-10
ComputeChange: NS (ITER=3) (NRM,RELC): ( 0.72688531     0.12075397E-06 ) :: navier-stokes
FlowSolve: iter:    3 Assembly: (s)    0.01    0.03
FlowSolve: iter:    3 Solve:    (s)    0.00    0.01
FlowSolve:  Result Norm     :   0.72688530901397808
FlowSolve:  Relative Change :    1.2075396918018759E-007
FlowSolve: 
FlowSolve: 
FlowSolve: -------------------------------------
FlowSolve:  NAVIER-STOKES ITERATION           4
FlowSolve: -------------------------------------
FlowSolve: 
FlowSolve: Starting Assembly...
FlowSolve: Assembly:
FlowSolve: Assembly done
FlowSolve: Dirichlet conditions done
       4 0.6680E-10
ComputeChange: NS (ITER=4) (NRM,RELC): ( 0.72688531     0.13325240E-08 ) :: navier-stokes
FlowSolve: iter:    4 Assembly: (s)    0.01    0.04
FlowSolve: iter:    4 Solve:    (s)    0.00    0.01
FlowSolve:  Result Norm     :   0.72688530998257017
FlowSolve:  Relative Change :    1.3325239659704940E-009
ComputeChange: SS (ITER=1) (NRM,RELC): ( 0.72688531     0.16159532E-03 ) :: navier-stokes
HeatSolver: Solving the energy equation for temperature
HeatSolve: 
HeatSolve: 
HeatSolve: -------------------------------------
HeatSolve:  TEMPERATURE ITERATION           1
HeatSolve: -------------------------------------
HeatSolve: 
HeatSolve: Starting Assembly...
HeatSolve: Assembly:
HeatSolve: Assembly done
       3 0.1724E-12
ComputeChange: NS (ITER=1) (NRM,RELC): (  301.26689     0.36414397E-03 ) :: heat equation
HeatSolve: iter:    1 Assembly: (s)    0.01    0.01
HeatSolve: iter:    1 Solve:    (s)    0.00    0.00
HeatSolve:  Result Norm   :    301.26689035477398
HeatSolve:  Relative Change :    3.6414396732654660E-004
HeatSolve: 
HeatSolve: 
HeatSolve: -------------------------------------
HeatSolve:  TEMPERATURE ITERATION           2
HeatSolve: -------------------------------------
HeatSolve: 
HeatSolve: Starting Assembly...
HeatSolve: Assembly:
HeatSolve: Assembly done
       1 0.3497E-15
ComputeChange: NS (ITER=2) (NRM,RELC): (  301.26689     0.13585051E-13 ) :: heat equation
HeatSolve: iter:    2 Assembly: (s)    0.01    0.01
HeatSolve: iter:    2 Solve:    (s)    0.00    0.00
HeatSolve:  Result Norm   :    301.26689035477807
HeatSolve:  Relative Change :    1.3585051291758369E-014
ComputeChange: SS (ITER=1) (NRM,RELC): (  301.26689     0.36414397E-03 ) :: heat equation
SolveEquations: -------------------------------------
SolveEquations:  Coupled system iteration:            2
SolveEquations: -------------------------------------
FlowSolve: 
FlowSolve: 
FlowSolve: -------------------------------------
FlowSolve:  NAVIER-STOKES ITERATION           1
FlowSolve: -------------------------------------
FlowSolve: 
FlowSolve: Starting Assembly...
FlowSolve: Assembly:
FlowSolve: Assembly done
FlowSolve: Dirichlet conditions done
      10 0.6330E-10
      10 0.6330E-10
ComputeChange: NS (ITER=1) (NRM,RELC): ( 0.72688527     0.55730959E-07 ) :: navier-stokes
FlowSolve: iter:    1 Assembly: (s)    0.01    0.01
FlowSolve: iter:    1 Solve:    (s)    0.00    0.00
FlowSolve:  Result Norm     :   0.72688526947255605
FlowSolve:  Relative Change :    5.5730958781899327E-008
ComputeChange: SS (ITER=2) (NRM,RELC): ( 0.72688527     0.55730959E-07 ) :: navier-stokes
HeatSolver: Solving the energy equation for temperature
HeatSolve: 
HeatSolve: 
HeatSolve: -------------------------------------
HeatSolve:  TEMPERATURE ITERATION           1
HeatSolve: -------------------------------------
HeatSolve: 
HeatSolve: Starting Assembly...
HeatSolve: Assembly:
HeatSolve: Assembly done
       1 0.1992E-11
ComputeChange: NS (ITER=1) (NRM,RELC): (  301.26689     0.26720532E-09 ) :: heat equation
HeatSolve: iter:    1 Assembly: (s)    0.00    0.00
HeatSolve: iter:    1 Solve:    (s)    0.00    0.00
HeatSolve:  Result Norm   :    301.26689027427796
HeatSolve:  Relative Change :    2.6720531729963259E-010
ComputeChange: SS (ITER=2) (NRM,RELC): (  301.26689     0.26720532E-09 ) :: heat equation
FluxSolver: -------------------------------------
FluxSolver: Computing the flux and/or gradient
FluxSolver: -------------------------------------
FluxSolver:  Assembly Time:    9.6583366394042969E-004
       7 0.1979E-10
       7 0.9063E-11
ComputeChange: NS (ITER=2) (NRM,RELC): (  563.79007      1.0229605     ) :: flux compute
FluxSolver:  Solution Time:    4.5609474182128906E-004
FluxSolver:  Result Norm:    1833.2141288708872
 Mesh dimension is:           2
CouplerSolver: Printing the data that is about to be written to Precice
CouplerSolver: Printing temperature
CouplerSolver: Node:     1 Index:     1 Value:   302.5735 X=       0.00 Y=       0.00
CouplerSolver: Node:     2 Index:    10 Value:   305.2589 X=       1.00 Y=       0.00
CouplerSolver: Node:    12 Index:     2 Value:   303.9319 X=       0.11 Y=       0.00
CouplerSolver: Node:    13 Index:     3 Value:   304.5403 X=       0.22 Y=       0.00
CouplerSolver: Node:    14 Index:     4 Value:   304.9376 X=       0.33 Y=       0.00
CouplerSolver: Node:    15 Index:     5 Value:   305.2436 X=       0.44 Y=       0.00
CouplerSolver: Node:    16 Index:     6 Value:   305.5006 X=       0.56 Y=       0.00
CouplerSolver: Node:    17 Index:     7 Value:   305.7045 X=       0.67 Y=       0.00
CouplerSolver: Node:    18 Index:     8 Value:   305.8398 X=       0.78 Y=       0.00
CouplerSolver: Node:    19 Index:     9 Value:   305.9007 X=       0.89 Y=       0.00
---[precice] [0m Time window completed
---[precice] [0m Mapping "Heat-Flux" for t=1 from "Solid-Mesh" to "Fluid-Mesh"
---[precice] [0m iteration: 1, time-window: 10, time: 0.9 of 1, time-window-size: 0.1, max-time-step-size: 0.1, ongoing: yes, time-window-complete: yes, 
CouplerSolver: Ended
ResultOutputSolver: -------------------------------------
ResultOutputSolver: Saving in unstructured VTK XML (.vtu) format
ResultOutputSolver: -------------------------------------
MAIN: 
MAIN: -------------------------------------
MAIN: Time: 10/10:   1.000E+00
MAIN: -------------------------------------
MAIN: 
 Mesh dimension is:           2
 No reading iteration checkpoint required
CouplerSolver: Readinging the data from Precice
CouplerSolver: Printing the data that was read
CouplerSolver: Printing temperature flux 2
CouplerSolver: Node:     1 Index:     1 Value:  3495.0141 X=       0.00 Y=       0.00
CouplerSolver: Node:     2 Index:    10 Value:  2725.1074 X=       1.00 Y=       0.00
CouplerSolver: Node:    12 Index:     2 Value:  2010.4543 X=       0.11 Y=       0.00
CouplerSolver: Node:    13 Index:     3 Value:  2069.0943 X=       0.22 Y=       0.00
CouplerSolver: Node:    14 Index:     4 Value:  1933.1075 X=       0.33 Y=       0.00
CouplerSolver: Node:    15 Index:     5 Value:  1835.7580 X=       0.44 Y=       0.00
CouplerSolver: Node:    16 Index:     6 Value:  1734.3885 X=       0.56 Y=       0.00
CouplerSolver: Node:    17 Index:     7 Value:  1651.3578 X=       0.67 Y=       0.00
CouplerSolver: Node:    18 Index:     8 Value:  1523.4976 X=       0.78 Y=       0.00
CouplerSolver: Node:    19 Index:     9 Value:  1556.1184 X=       0.89 Y=       0.00
CouplerSolver: Ended
SolveEquations: -------------------------------------
SolveEquations:  Coupled system iteration:            1
SolveEquations: -------------------------------------
FlowSolve: 
FlowSolve: 
FlowSolve: -------------------------------------
FlowSolve:  NAVIER-STOKES ITERATION           1
FlowSolve: -------------------------------------
FlowSolve: 
FlowSolve: Starting Assembly...
FlowSolve: Assembly:
FlowSolve: Assembly done
FlowSolve: Dirichlet conditions done
      10 0.9694E-08
      13 0.1369E-11
ComputeChange: NS (ITER=1) (NRM,RELC): ( 0.72709204     0.28442258E-03 ) :: navier-stokes
FlowSolve: iter:    1 Assembly: (s)    0.01    0.01
FlowSolve: iter:    1 Solve:    (s)    0.00    0.00
FlowSolve:  Result Norm     :   0.72709204146261541
FlowSolve:  Relative Change :    2.8442258143130219E-004
FlowSolve: 
FlowSolve: 
FlowSolve: -------------------------------------
FlowSolve:  NAVIER-STOKES ITERATION           2
FlowSolve: -------------------------------------
FlowSolve: 
FlowSolve: Starting Assembly...
FlowSolve: Assembly:
FlowSolve: Assembly done
FlowSolve: Dirichlet conditions done
      10 0.1248E-09
      11 0.7888E-10
ComputeChange: NS (ITER=2) (NRM,RELC): ( 0.72705792     0.46933528E-04 ) :: navier-stokes
FlowSolve: iter:    2 Assembly: (s)    0.01    0.02
FlowSolve: iter:    2 Solve:    (s)    0.00    0.00
FlowSolve:  Result Norm     :   0.72705791726864522
FlowSolve:  Relative Change :    4.6933528093582189E-005
FlowSolve: 
FlowSolve: 
FlowSolve: -------------------------------------
FlowSolve:  NAVIER-STOKES ITERATION           3
FlowSolve: -------------------------------------
FlowSolve: 
FlowSolve: Starting Assembly...
FlowSolve: Assembly:
FlowSolve: Assembly done
FlowSolve: Dirichlet conditions done
      10 0.3496E-09
      11 0.7865E-11
ComputeChange: NS (ITER=3) (NRM,RELC): ( 0.72705790     0.21508108E-07 ) :: navier-stokes
FlowSolve: iter:    3 Assembly: (s)    0.01    0.03
FlowSolve: iter:    3 Solve:    (s)    0.00    0.01
FlowSolve:  Result Norm     :   0.72705790163100525
FlowSolve:  Relative Change :    2.1508107892728304E-008
ComputeChange: SS (ITER=1) (NRM,RELC): ( 0.72705790     0.23746755E-03 ) :: navier-stokes
HeatSolver: Solving the energy equation for temperature
HeatSolve: 
HeatSolve: 
HeatSolve: -------------------------------------
HeatSolve:  TEMPERATURE ITERATION           1
HeatSolve: -------------------------------------
HeatSolve: 
HeatSolve: Starting Assembly...
HeatSolve: Assembly:
HeatSolve: Assembly done
       3 0.1629E-12
ComputeChange: NS (ITER=1) (NRM,RELC): (  301.37553     0.36053322E-03 ) :: heat equation
HeatSolve: iter:    1 Assembly: (s)    0.00    0.00
HeatSolve: iter:    1 Solve:    (s)    0.00    0.00
HeatSolve:  Result Norm   :    301.37552658051573
HeatSolve:  Relative Change :    3.6053322235346681E-004
HeatSolve: 
HeatSolve: 
HeatSolve: -------------------------------------
HeatSolve:  TEMPERATURE ITERATION           2
HeatSolve: -------------------------------------
HeatSolve: 
HeatSolve: Starting Assembly...
HeatSolve: Assembly:
HeatSolve: Assembly done
       1 0.3835E-15
ComputeChange: NS (ITER=2) (NRM,RELC): (  301.37553     0.10939569E-13 ) :: heat equation
HeatSolve: iter:    2 Assembly: (s)    0.00    0.01
HeatSolve: iter:    2 Solve:    (s)    0.00    0.00
HeatSolve:  Result Norm   :    301.37552658051902
HeatSolve:  Relative Change :    1.0939568754419214E-014
ComputeChange: SS (ITER=1) (NRM,RELC): (  301.37553     0.36053322E-03 ) :: heat equation
SolveEquations: -------------------------------------
SolveEquations:  Coupled system iteration:            2
SolveEquations: -------------------------------------
FlowSolve: 
FlowSolve: 
FlowSolve: -------------------------------------
FlowSolve:  NAVIER-STOKES ITERATION           1
FlowSolve: -------------------------------------
FlowSolve: 
FlowSolve: Starting Assembly...
FlowSolve: Assembly:
FlowSolve: Assembly done
FlowSolve: Dirichlet conditions done
      10 0.4812E-10
      10 0.4812E-10
ComputeChange: NS (ITER=1) (NRM,RELC): ( 0.72705786     0.53761442E-07 ) :: navier-stokes
FlowSolve: iter:    1 Assembly: (s)    0.01    0.01
FlowSolve: iter:    1 Solve:    (s)    0.00    0.00
FlowSolve:  Result Norm     :   0.72705786254332494
FlowSolve:  Relative Change :    5.3761442214858698E-008
ComputeChange: SS (ITER=2) (NRM,RELC): ( 0.72705786     0.53761442E-07 ) :: navier-stokes
HeatSolver: Solving the energy equation for temperature
HeatSolve: 
HeatSolve: 
HeatSolve: -------------------------------------
HeatSolve:  TEMPERATURE ITERATION           1
HeatSolve: -------------------------------------
HeatSolve: 
HeatSolve: Starting Assembly...
HeatSolve: Assembly:
HeatSolve: Assembly done
       1 0.1868E-11
ComputeChange: NS (ITER=1) (NRM,RELC): (  301.37553     0.26561462E-09 ) :: heat equation
HeatSolve: iter:    1 Assembly: (s)    0.00    0.00
HeatSolve: iter:    1 Solve:    (s)    0.00    0.00
HeatSolve:  Result Norm   :    301.37552650046928
HeatSolve:  Relative Change :    2.6561461552511644E-010
ComputeChange: SS (ITER=2) (NRM,RELC): (  301.37553     0.26561462E-09 ) :: heat equation
FluxSolver: -------------------------------------
FluxSolver: Computing the flux and/or gradient
FluxSolver: -------------------------------------
FluxSolver:  Assembly Time:    1.0569095611572266E-003
       7 0.1955E-10
       7 0.9068E-11
ComputeChange: NS (ITER=2) (NRM,RELC): (  560.58740      1.0632684     ) :: flux compute
FluxSolver:  Solution Time:    4.2390823364257812E-004
FluxSolver:  Result Norm:    1917.0112872778145
 Mesh dimension is:           2
CouplerSolver: Printing the data that is about to be written to Precice
CouplerSolver: Printing temperature
CouplerSolver: Node:     1 Index:     1 Value:   302.6053 X=       0.00 Y=       0.00
CouplerSolver: Node:     2 Index:    10 Value:   305.3333 X=       1.00 Y=       0.00
CouplerSolver: Node:    12 Index:     2 Value:   303.9722 X=       0.11 Y=       0.00
CouplerSolver: Node:    13 Index:     3 Value:   304.5864 X=       0.22 Y=       0.00
CouplerSolver: Node:    14 Index:     4 Value:   304.9771 X=       0.33 Y=       0.00
CouplerSolver: Node:    15 Index:     5 Value:   305.2680 X=       0.44 Y=       0.00
CouplerSolver: Node:    16 Index:     6 Value:   305.5136 X=       0.56 Y=       0.00
CouplerSolver: Node:    17 Index:     7 Value:   305.7172 X=       0.67 Y=       0.00
CouplerSolver: Node:    18 Index:     8 Value:   305.8626 X=       0.78 Y=       0.00
CouplerSolver: Node:    19 Index:     9 Value:   305.9378 X=       0.89 Y=       0.00
---[precice] [0m Time window completed
---[precice] [0m iteration: 1, time-window: 11, time: 1 of 1, time-window-size: 0.1, max-time-step-size: 0, ongoing: no, time-window-complete: yes, 
CouplerSolver: Ended
ResultOutputSolver: -------------------------------------
ResultOutputSolver: Saving in unstructured VTK XML (.vtu) format
ResultOutputSolver: -------------------------------------
 Mesh dimension is:           2
CouplerSolver: Precice Finalize
---[precice] [0m Close communication channels
CouplerSolver: Ended
MAIN: *** Elmer Solver: ALL DONE ***
MAIN: The end
SOLVER TOTAL TIME(CPU,REAL):         1.01        1.59
ELMER SOLVER FINISHED AT: 2024/06/30 17:39:23
